                                  MODFLOW-USG      
      U.S. GEOLOGICAL SURVEY MODULAR FINITE-DIFFERENCE GROUNDWATER FLOW MODEL
                            VERSION 1.2.00 03/21/2014

 LIST FILE: example_2.list
                         UNIT    2

 OPENING example_2.disu
 FILE TYPE:DISU   UNIT   11   STATUS:OLD    
 FORMAT:FORMATTED              ACCESS:SEQUENTIAL          

 OPENING example_2.bas
 FILE TYPE:BAS6   UNIT   13   STATUS:OLD    
 FORMAT:FORMATTED              ACCESS:SEQUENTIAL          

 OPENING example_2.lpf
 FILE TYPE:LPF   UNIT   15   STATUS:OLD    
 FORMAT:FORMATTED              ACCESS:SEQUENTIAL          

 OPENING example_2.oc
 FILE TYPE:OC   UNIT   14   STATUS:OLD    
 FORMAT:FORMATTED              ACCESS:SEQUENTIAL          

 OPENING example_2.rch
 FILE TYPE:RCH   UNIT   16   STATUS:OLD    
 FORMAT:FORMATTED              ACCESS:SEQUENTIAL          

 OPENING example_2.wel
 FILE TYPE:WEL   UNIT   17   STATUS:OLD    
 FORMAT:FORMATTED              ACCESS:SEQUENTIAL          

 OPENING example_2.riv
 FILE TYPE:RIV   UNIT   18   STATUS:OLD    
 FORMAT:FORMATTED              ACCESS:SEQUENTIAL          

 OPENING example_2.hed
 FILE TYPE:DATA(BINARY)   UNIT   51   STATUS:REPLACE
 FORMAT:BINARY                 ACCESS:SEQUENTIAL          

 OPENING example_2.bud
 FILE TYPE:DATA(BINARY)   UNIT   50   STATUS:REPLACE
 FORMAT:BINARY                 ACCESS:SEQUENTIAL          

 OPENING example_2.sms
 FILE TYPE:SMS   UNIT   27   STATUS:OLD    
 FORMAT:FORMATTED              ACCESS:SEQUENTIAL          

 OPENING example_2.gnc
 FILE TYPE:GNC   UNIT   30   STATUS:OLD    
 FORMAT:FORMATTED              ACCESS:SEQUENTIAL          

 BAS -- BASIC PACKAGE-USG      1.2.00 03/21/2014                        INPUT READ FROM UNIT   13
 
 # Basic package file for MODFLOW-USG                                            
 THE FREE FORMAT OPTION HAS BEEN SELECTED
 THE UNSTRUCTURED GRID OPTION HAS BEEN SELECTED

 DIS -- UNSTRUCTURED GRID DISCRETIZATION PACKAGE, VERSION 1 : 5/17/2010 - INPUT READ FROM UNIT   11
       1953 NODES         3 NLAY     12303 NJAG  VERT. SUBDISCRETIZATION INDEX, IVSD =  0
 INDEX FOR INPUT OF UNSTRUCTURED, FINITE-VOLUME CONNECTIVITY INFORMATION, IDSYMRD =   0
    1 STRESS PERIOD(S) IN SIMULATION
 MODEL TIME UNIT IS UNDEFINED
 MODEL LENGTH UNIT IS UNDEFINED
  Confining bed flag for each layer:
   0   0   0

 GNCn -- GHOST NODE CORRECTION PACKAGE WITH n ADJACENT CONTRIBUTING NODES VERSION 1, 6/18/2011.
   INPUT READ FROM UNIT   30
     0 PARAMETERS DEFINE A MAXIMUM OF      0 GHOST NODE CORRECTION LOCATIONS
    360 GHOST NODE CORRECTION LOCATIONS NOT DEFINED BY PARAMETERS
  MAXIMUM NUMBER OF ADJACENT CONTRIBUTING NODES =      1
  FLAG INDICATING SECOND-ORDER CORRECTION ON TRANSMISSIVITY TERM FOR UNCONFINED FLOW, I2Kn =      0
  FLAG FOR SYMMETRIC IMPLEMENTATION OF GNCn, ISYMGNCn =      0
  FLAG FOR INPUT OF SATURATED CONDUCTANCES, IFLALPHAn =      0


     0 GNC parameters

    360 GHOST NODES NOT DEFINED BY PARAMETERS

 GNC-NODE    NODEn   NODEm    NODESj FACTORSj    
 ---------------------------------------------------
       1        148        168    147.000       0.250000    
       2        148        169    149.000       0.250000    
       3        149        172    148.000       0.250000    
       4        149        173    150.000       0.250000    
       5        150        176    149.000       0.250000    
       6        150        177    151.000       0.250000    
       7        151        180    150.000       0.250000    
       8        151        181    152.000       0.250000    
       9        152        184    151.000       0.250000    
      10        152        185    153.000       0.250000    
      11        167        168    147.000       0.250000    
      12        167        170    202.000       0.250000    
      13        174        207    171.000       0.250000    
      14        174        208    175.000       0.250000    
      15        175        209    174.000       0.250000    
      16        175        210    178.000       0.250000    
      17        178        223    175.000       0.250000    
      18        178        224    179.000       0.250000    
      19        179        225    178.000       0.250000    
      20        179        226    182.000       0.250000    
      21        182        239    179.000       0.250000    
      22        182        240    183.000       0.250000    
      23        183        241    182.000       0.250000    
      24        183        242    186.000       0.250000    
      25        188        185    153.000       0.250000    
      26        188        187    259.000       0.250000    
      27        202        203    167.000       0.250000    
      28        202        205    273.000       0.250000    
      29        204        207    171.000       0.250000    
      30        204        211    206.000       0.250000    
      31        206        215    204.000       0.250000    
      32        206        219    275.000       0.250000    
      33        235        294    222.000       0.250000    
      34        235        295    236.000       0.250000    
      35        236        296    235.000       0.250000    
      36        236        297    237.000       0.250000    
      37        237        298    236.000       0.250000    
      38        237        299    238.000       0.250000    
      39        238        300    237.000       0.250000    
      40        238        301    251.000       0.250000    
      41        255        242    186.000       0.250000    
      42        255        246    257.000       0.250000    
      43        257        250    255.000       0.250000    
      44        257        254    374.000       0.250000    
      45        259        256    188.000       0.250000    
      46        259        258    378.000       0.250000    
      47        273        274    202.000       0.250000    
      48        273        276    392.000       0.250000    
      49        275        278    206.000       0.250000    
      50        275        282    277.000       0.250000    
      51        277        286    275.000       0.250000    
      52        277        290    394.000       0.250000    
      53        281        294    222.000       0.250000    
      54        281        302    285.000       0.250000    
      55        285        310    281.000       0.250000    
      56        285        318    289.000       0.250000    
      57        289        326    285.000       0.250000    
      58        289        334    293.000       0.250000    
      59        293        342    289.000       0.250000    
      60        293        350    400.000       0.250000    
      61        358        301    251.000       0.250000    
      62        358        309    362.000       0.250000    
      63        362        317    358.000       0.250000    
      64        362        325    366.000       0.250000    
      65        366        333    362.000       0.250000    
      66        366        341    370.000       0.250000    
      67        370        349    366.000       0.250000    
      68        370        357    429.000       0.250000    
      69        374        361    257.000       0.250000    
      70        374        365    376.000       0.250000    
      71        376        369    374.000       0.250000    
      72        376        373    445.000       0.250000    
      73        378        375    259.000       0.250000    
      74        378        377    449.000       0.250000    
      75        392        393    273.000       0.250000    
      76        392        395    463.000       0.250000    
      77        394        397    277.000       0.250000    
      78        394        401    396.000       0.250000    
      79        396        405    394.000       0.250000    
      80        396        409    465.000       0.250000    
      81        413        350    400.000       0.250000    
      82        413        351    414.000       0.250000    
      83        414        352    413.000       0.250000    
      84        414        353    415.000       0.250000    
      85        415        354    414.000       0.250000    
      86        415        355    416.000       0.250000    
      87        416        356    415.000       0.250000    
      88        416        357    429.000       0.250000    
      89        445        432    376.000       0.250000    
      90        445        436    447.000       0.250000    
      91        447        440    445.000       0.250000    
      92        447        444    480.000       0.250000    
      93        449        446    378.000       0.250000    
      94        449        448    484.000       0.250000    
      95        463        464    392.000       0.250000    
      96        463        466    498.000       0.250000    
      97        468        409    465.000       0.250000    
      98        468        410    469.000       0.250000    
      99        469        411    468.000       0.250000    
     100        469        412    472.000       0.250000    
     101        472        425    469.000       0.250000    
     102        472        426    473.000       0.250000    
     103        473        427    472.000       0.250000    
     104        473        428    476.000       0.250000    
     105        476        441    473.000       0.250000    
     106        476        442    477.000       0.250000    
     107        477        443    476.000       0.250000    
     108        477        444    480.000       0.250000    
     109        484        481    449.000       0.250000    
     110        484        483    504.000       0.250000    
     111        499        466    498.000       0.250000    
     112        499        467    500.000       0.250000    
     113        500        470    499.000       0.250000    
     114        500        471    501.000       0.250000    
     115        501        474    500.000       0.250000    
     116        501        475    502.000       0.250000    
     117        502        478    501.000       0.250000    
     118        502        479    503.000       0.250000    
     119        503        482    502.000       0.250000    
     120        503        483    504.000       0.250000    
     121        799        819    798.000       0.250000    
     122        799        820    800.000       0.250000    
     123        800        823    799.000       0.250000    
     124        800        824    801.000       0.250000    
     125        801        827    800.000       0.250000    
     126        801        828    802.000       0.250000    
     127        802        831    801.000       0.250000    
     128        802        832    803.000       0.250000    
     129        803        835    802.000       0.250000    
     130        803        836    804.000       0.250000    
     131        818        819    798.000       0.250000    
     132        818        821    853.000       0.250000    
     133        825        858    822.000       0.250000    
     134        825        859    826.000       0.250000    
     135        826        860    825.000       0.250000    
     136        826        861    829.000       0.250000    
     137        829        874    826.000       0.250000    
     138        829        875    830.000       0.250000    
     139        830        876    829.000       0.250000    
     140        830        877    833.000       0.250000    
     141        833        890    830.000       0.250000    
     142        833        891    834.000       0.250000    
     143        834        892    833.000       0.250000    
     144        834        893    837.000       0.250000    
     145        839        836    804.000       0.250000    
     146        839        838    910.000       0.250000    
     147        853        854    818.000       0.250000    
     148        853        856    924.000       0.250000    
     149        855        858    822.000       0.250000    
     150        855        862    857.000       0.250000    
     151        857        866    855.000       0.250000    
     152        857        870    926.000       0.250000    
     153        886        945    873.000       0.250000    
     154        886        946    887.000       0.250000    
     155        887        947    886.000       0.250000    
     156        887        948    888.000       0.250000    
     157        888        949    887.000       0.250000    
     158        888        950    889.000       0.250000    
     159        889        951    888.000       0.250000    
     160        889        952    902.000       0.250000    
     161        906        893    837.000       0.250000    
     162        906        897    908.000       0.250000    
     163        908        901    906.000       0.250000    
     164        908        905    1025.00       0.250000    
     165        910        907    839.000       0.250000    
     166        910        909    1029.00       0.250000    
     167        924        925    853.000       0.250000    
     168        924        927    1043.00       0.250000    
     169        926        929    857.000       0.250000    
     170        926        933    928.000       0.250000    
     171        928        937    926.000       0.250000    
     172        928        941    1045.00       0.250000    
     173        932        945    873.000       0.250000    
     174        932        953    936.000       0.250000    
     175        936        961    932.000       0.250000    
     176        936        969    940.000       0.250000    
     177        940        977    936.000       0.250000    
     178        940        985    944.000       0.250000    
     179        944        993    940.000       0.250000    
     180        944       1001    1051.00       0.250000    
     181       1009        952    902.000       0.250000    
     182       1009        960    1013.00       0.250000    
     183       1013        968    1009.00       0.250000    
     184       1013        976    1017.00       0.250000    
     185       1017        984    1013.00       0.250000    
     186       1017        992    1021.00       0.250000    
     187       1021       1000    1017.00       0.250000    
     188       1021       1008    1080.00       0.250000    
     189       1025       1012    908.000       0.250000    
     190       1025       1016    1027.00       0.250000    
     191       1027       1020    1025.00       0.250000    
     192       1027       1024    1096.00       0.250000    
     193       1029       1026    910.000       0.250000    
     194       1029       1028    1100.00       0.250000    
     195       1043       1044    924.000       0.250000    
     196       1043       1046    1114.00       0.250000    
     197       1045       1048    928.000       0.250000    
     198       1045       1052    1047.00       0.250000    
     199       1047       1056    1045.00       0.250000    
     200       1047       1060    1116.00       0.250000    
     201       1064       1001    1051.00       0.250000    
     202       1064       1002    1065.00       0.250000    
     203       1065       1003    1064.00       0.250000    
     204       1065       1004    1066.00       0.250000    
     205       1066       1005    1065.00       0.250000    
     206       1066       1006    1067.00       0.250000    
     207       1067       1007    1066.00       0.250000    
     208       1067       1008    1080.00       0.250000    
     209       1096       1083    1027.00       0.250000    
     210       1096       1087    1098.00       0.250000    
     211       1098       1091    1096.00       0.250000    
     212       1098       1095    1131.00       0.250000    
     213       1100       1097    1029.00       0.250000    
     214       1100       1099    1135.00       0.250000    
     215       1114       1115    1043.00       0.250000    
     216       1114       1117    1149.00       0.250000    
     217       1119       1060    1116.00       0.250000    
     218       1119       1061    1120.00       0.250000    
     219       1120       1062    1119.00       0.250000    
     220       1120       1063    1123.00       0.250000    
     221       1123       1076    1120.00       0.250000    
     222       1123       1077    1124.00       0.250000    
     223       1124       1078    1123.00       0.250000    
     224       1124       1079    1127.00       0.250000    
     225       1127       1092    1124.00       0.250000    
     226       1127       1093    1128.00       0.250000    
     227       1128       1094    1127.00       0.250000    
     228       1128       1095    1131.00       0.250000    
     229       1135       1132    1100.00       0.250000    
     230       1135       1134    1155.00       0.250000    
     231       1150       1117    1149.00       0.250000    
     232       1150       1118    1151.00       0.250000    
     233       1151       1121    1150.00       0.250000    
     234       1151       1122    1152.00       0.250000    
     235       1152       1125    1151.00       0.250000    
     236       1152       1126    1153.00       0.250000    
     237       1153       1129    1152.00       0.250000    
     238       1153       1130    1154.00       0.250000    
     239       1154       1133    1153.00       0.250000    
     240       1154       1134    1155.00       0.250000    
     241       1450       1470    1449.00       0.250000    
     242       1450       1471    1451.00       0.250000    
     243       1451       1474    1450.00       0.250000    
     244       1451       1475    1452.00       0.250000    
     245       1452       1478    1451.00       0.250000    
     246       1452       1479    1453.00       0.250000    
     247       1453       1482    1452.00       0.250000    
     248       1453       1483    1454.00       0.250000    
     249       1454       1486    1453.00       0.250000    
     250       1454       1487    1455.00       0.250000    
     251       1469       1470    1449.00       0.250000    
     252       1469       1472    1504.00       0.250000    
     253       1476       1509    1473.00       0.250000    
     254       1476       1510    1477.00       0.250000    
     255       1477       1511    1476.00       0.250000    
     256       1477       1512    1480.00       0.250000    
     257       1480       1525    1477.00       0.250000    
     258       1480       1526    1481.00       0.250000    
     259       1481       1527    1480.00       0.250000    
     260       1481       1528    1484.00       0.250000    
     261       1484       1541    1481.00       0.250000    
     262       1484       1542    1485.00       0.250000    
     263       1485       1543    1484.00       0.250000    
     264       1485       1544    1488.00       0.250000    
     265       1490       1487    1455.00       0.250000    
     266       1490       1489    1561.00       0.250000    
     267       1504       1505    1469.00       0.250000    
     268       1504       1507    1575.00       0.250000    
     269       1506       1509    1473.00       0.250000    
     270       1506       1513    1508.00       0.250000    
     271       1508       1517    1506.00       0.250000    
     272       1508       1521    1577.00       0.250000    
     273       1537       1596    1524.00       0.250000    
     274       1537       1597    1538.00       0.250000    
     275       1538       1598    1537.00       0.250000    
     276       1538       1599    1539.00       0.250000    
     277       1539       1600    1538.00       0.250000    
     278       1539       1601    1540.00       0.250000    
     279       1540       1602    1539.00       0.250000    
     280       1540       1603    1553.00       0.250000    
     281       1557       1544    1488.00       0.250000    
     282       1557       1548    1559.00       0.250000    
     283       1559       1552    1557.00       0.250000    
     284       1559       1556    1676.00       0.250000    
     285       1561       1558    1490.00       0.250000    
     286       1561       1560    1680.00       0.250000    
     287       1575       1576    1504.00       0.250000    
     288       1575       1578    1694.00       0.250000    
     289       1577       1580    1508.00       0.250000    
     290       1577       1584    1579.00       0.250000    
     291       1579       1588    1577.00       0.250000    
     292       1579       1592    1696.00       0.250000    
     293       1583       1596    1524.00       0.250000    
     294       1583       1604    1587.00       0.250000    
     295       1587       1612    1583.00       0.250000    
     296       1587       1620    1591.00       0.250000    
     297       1591       1628    1587.00       0.250000    
     298       1591       1636    1595.00       0.250000    
     299       1595       1644    1591.00       0.250000    
     300       1595       1652    1702.00       0.250000    
     301       1660       1603    1553.00       0.250000    
     302       1660       1611    1664.00       0.250000    
     303       1664       1619    1660.00       0.250000    
     304       1664       1627    1668.00       0.250000    
     305       1668       1635    1664.00       0.250000    
     306       1668       1643    1672.00       0.250000    
     307       1672       1651    1668.00       0.250000    
     308       1672       1659    1731.00       0.250000    
     309       1676       1663    1559.00       0.250000    
     310       1676       1667    1678.00       0.250000    
     311       1678       1671    1676.00       0.250000    
     312       1678       1675    1747.00       0.250000    
     313       1680       1677    1561.00       0.250000    
     314       1680       1679    1751.00       0.250000    
     315       1694       1695    1575.00       0.250000    
     316       1694       1697    1765.00       0.250000    
     317       1696       1699    1579.00       0.250000    
     318       1696       1703    1698.00       0.250000    
     319       1698       1707    1696.00       0.250000    
     320       1698       1711    1767.00       0.250000    
     321       1715       1652    1702.00       0.250000    
     322       1715       1653    1716.00       0.250000    
     323       1716       1654    1715.00       0.250000    
     324       1716       1655    1717.00       0.250000    
     325       1717       1656    1716.00       0.250000    
     326       1717       1657    1718.00       0.250000    
     327       1718       1658    1717.00       0.250000    
     328       1718       1659    1731.00       0.250000    
     329       1747       1734    1678.00       0.250000    
     330       1747       1738    1749.00       0.250000    
     331       1749       1742    1747.00       0.250000    
     332       1749       1746    1782.00       0.250000    
     333       1751       1748    1680.00       0.250000    
     334       1751       1750    1786.00       0.250000    
     335       1765       1766    1694.00       0.250000    
     336       1765       1768    1800.00       0.250000    
     337       1770       1711    1767.00       0.250000    
     338       1770       1712    1771.00       0.250000    
     339       1771       1713    1770.00       0.250000    
     340       1771       1714    1774.00       0.250000    
     341       1774       1727    1771.00       0.250000    
     342       1774       1728    1775.00       0.250000    
     343       1775       1729    1774.00       0.250000    
     344       1775       1730    1778.00       0.250000    
     345       1778       1743    1775.00       0.250000    
     346       1778       1744    1779.00       0.250000    
     347       1779       1745    1778.00       0.250000    
     348       1779       1746    1782.00       0.250000    
     349       1786       1783    1751.00       0.250000    
     350       1786       1785    1806.00       0.250000    
     351       1801       1768    1800.00       0.250000    
     352       1801       1769    1802.00       0.250000    
     353       1802       1772    1801.00       0.250000    
     354       1802       1773    1803.00       0.250000    
     355       1803       1776    1802.00       0.250000    
     356       1803       1777    1804.00       0.250000    
     357       1804       1780    1803.00       0.250000    
     358       1804       1781    1805.00       0.250000    
     359       1805       1784    1804.00       0.250000    
     360       1805       1785    1806.00       0.250000    

    360 GNC CELLS

 DIS -- UNSTRUCTURED GRID DISCRETIZATION PACKAGE, VERSION 1 : 5/17/2010 - INPUT READ FROM UNIT   11



             NO. OF NODES PER LAYER
 READING ON UNIT   11 WITH FORMAT: (FREE)              
       651       651       651



                                TOP FOR LAYER   1
 READING ON UNIT   11 WITH FORMAT: (FREE)              



                                TOP FOR LAYER   2
 READING ON UNIT   11 WITH FORMAT: (FREE)              



                                TOP FOR LAYER   3
 READING ON UNIT   11 WITH FORMAT: (FREE)              



                                BOT FOR LAYER   1
 READING ON UNIT   11 WITH FORMAT: (FREE)              



                                BOT FOR LAYER   2
 READING ON UNIT   11 WITH FORMAT: (FREE)              



                                BOT FOR LAYER   3
 READING ON UNIT   11 WITH FORMAT: (FREE)              



                               AREA FOR LAYER   1
 READING ON UNIT   11 WITH FORMAT: (FREE)              



                               AREA FOR LAYER   2
 READING ON UNIT   11 WITH FORMAT: (FREE)              



                               AREA FOR LAYER   3
 READING ON UNIT   11 WITH FORMAT: (FREE)              



                                 IA
 READING ON UNIT   11 WITH FORMAT: (FREE)              



                                 JA
 READING ON UNIT   11 WITH FORMAT: (FREE)              



               CONNECTION LENGTH 12 FOR LAYER   1
 READING ON UNIT   11 WITH FORMAT: (FREE)              



                 PERPENDICULAR AREA
 READING ON UNIT   11 WITH FORMAT: (FREE)              


 STRESS PERIOD     LENGTH       TIME STEPS     MULTIPLIER FOR DELT    SS FLAG
 ----------------------------------------------------------------------------
        1        1.0000000          1                    1.000         SS

 STEADY-STATE SIMULATION




           BOUNDARY ARRAY =         1 FOR LAYER   1

           BOUNDARY ARRAY =         1 FOR LAYER   2

           BOUNDARY ARRAY =         1 FOR LAYER   3

 AQUIFER HEAD WILL BE SET TO  0.10000E+31 AT ALL NO-FLOW NODES (IBOUND=0).

             INITIAL HEAD =   320.000     FOR LAYER   1

             INITIAL HEAD =   320.000     FOR LAYER   2

             INITIAL HEAD =   320.000     FOR LAYER   3
 # Output Control for MODPATH7 test problem EXAMPLE_2

 OUTPUT CONTROL IS SPECIFIED ONLY AT TIME STEPS FOR WHICH OUTPUT IS DESIRED
 COMPACT CELL-BY-CELL BUDGET FILES WILL BE WRITTEN
 AUXILIARY DATA WILL BE SAVED IN CELL-BY-CELL BUDGET FILES
 HEAD PRINT FORMAT CODE IS   4    DRAWDOWN PRINT FORMAT CODE IS   0
 HEADS WILL BE SAVED ON UNIT   51    DRAWDOWNS WILL BE SAVED ON UNIT    0

 LPF -- LAYER-PROPERTY FLOW PACKAGE, VERSION 7, 5/2/2005
         INPUT READ FROM UNIT   15
 CELL-BY-CELL FLOWS WILL BE SAVED ON UNIT   50
 HEAD AT CELLS THAT CONVERT TO DRY=  1.00000E+20
 No named parameters
 IKCFLAG=0, NODAL INPUT OF HY AND CV

   LAYER FLAGS:
 LAYER       LAYTYP        LAYAVG         CHANI        LAYVKA        LAYWET
 ---------------------------------------------------------------------------
    1             1             0     1.000E+00             0             0
    2             0             0     1.000E+00             0             0
    3             0             0     1.000E+00             0             0

   INTERPRETATION OF LAYER FLAGS:
                        INTERBLOCK     HORIZONTAL    DATA IN
         LAYER TYPE   TRANSMISSIVITY   ANISOTROPY   ARRAY VKA   WETTABILITY
 LAYER      (LAYTYP)      (LAYAVG)       (CHANI)      (LAYVKA)      (LAYWET)
 ---------------------------------------------------------------------------
    1   CONVERTIBLE      HARMONIC     1.000E+00    VERTICAL K  NON-WETTABLE
    2      CONFINED      HARMONIC     1.000E+00    VERTICAL K  NON-WETTABLE
    3      CONFINED      HARMONIC     1.000E+00    VERTICAL K  NON-WETTABLE

 WETTING CAPABILITY IS NOT ACTIVE IN ANY LAYER

    HYD. COND. ALONG ROWS =   50.0000     FOR LAYER   1

      VERTICAL HYD. COND. =  10.00000     FOR LAYER   1

    HYD. COND. ALONG ROWS =  1.000000E-02 FOR LAYER   2

      VERTICAL HYD. COND. =  1.000000E-02 FOR LAYER   2

    HYD. COND. ALONG ROWS =   200.000     FOR LAYER   3

      VERTICAL HYD. COND. =   20.0000     FOR LAYER   3

 WEL -- WELL PACKAGE, VERSION 7, 5/2/2005 INPUT READ FROM UNIT   17
 No named parameters
 MAXIMUM OF      1 ACTIVE WELLS AT ONE TIME
 CELL-BY-CELL FLOWS WILL BE SAVED ON UNIT   50
 MAXIMUM NUMBER OF ACTIVE WELLS (MXACTW) =      1
 C-B-C FLUX FLAG OR UNIT NUMBER (IWELCB) = 50
 AUXILIARY WELL VARIABLE: IFACE           


     0 Well parameters

 RIV -- RIVER PACKAGE, VERSION 7, 5/2/2005 INPUT READ FROM UNIT   18
 No named parameters
 MAXIMUM OF     21 ACTIVE RIVER REACHES AT ONE TIME
 CELL-BY-CELL FLOWS WILL BE SAVED ON UNIT   50
 AUXILIARY RIVER VARIABLE: IFACE           


     0 River parameters

 RCH -- RECHARGE PACKAGE, VERSION 7, 5/2/2005 INPUT READ FROM UNIT   16
 No named parameters
 OPTION 1 -- RECHARGE TO TOP LAYER
 CELL-BY-CELL FLOWS WILL BE SAVED ON UNIT   50


     0 Recharge parameters

 SMS -- SPARSE MATRIX SOLVER PACKAGE, VERSION 7, 5/2/2005
         INPUT READ FROM UNIT 27
 No named parameters
 ALL SOLVER INPUT DATA WILL BE READ 
FROM THE SOLVER INPUT FILE. 
 OUTER ITERATION CONVERGENCE CRITERION (HCLOSE) =    0.100000E-06
 INNER ITERATION CONVERGENCE CRITERION (HICLOSE) =    0.100000E-06
 MAXIMUM NUMBER OF OUTER ITERATIONS (MXITER)     =       200
 MAXIMUM NUMBER OF INNER ITERATIONS (ITER1)      =       200
 SOLVER PRINTOUT INDEX             (IPRSMS)      =         1
 NONLINEAR ITERATION METHOD    (NONLINMETH)      =         0
 LINEAR SOLUTION METHOD           (LINMETH)      =         1
 ***Picard Linearization will be used***
 
 ***XMD linear solver will be used***
 XMD -- LINEAR SOLUTION BY XMD PACKAGE VERSION 1.30
     BY MOTOMU IBARAKI, OHIO STATE UNIVERSITY, COLOMBUS, OH
                 INPUT READ FROM UNIT 27
 ACCELERATION METHOD                    (IACL) =         1
 EQUATION ORDERING FLAG               (NORDER) =         0
 LEVEL OF FILL                         (LEVEL) =         0
 MAXIMUM NUMBER OF ORTHOGONALIZATIONS  (NORTH) =         7
 INDEX FOR USING REDUCED SYSTEM      (IREDSYS) =         0
 RESID. REDUCTION CONVERGE CRITERION  (RRCTOL) =  0.000000E+00
 INDEX FOR USING DROP TOLERANCE     (IDROPTOL) =         0
 DROP TOLERANCE VALUE                 ((EPSRN) =  0.100000E-02
 
1
                            STRESS PERIOD NO.    1, LENGTH =  1.0000000    
                            -----------------------------------------------

                              NUMBER OF TIME STEPS =     1

                               MULTIPLIER FOR DELT =     1.000

                            INITIAL TIME STEP SIZE =  1.0000000    

 WEL -- WELL PACKAGE, VERSION 7, 5/2/2005 INPUT READ FROM UNIT   17

 WELL NO.      NODE       STRESS FACTOR         IFACE           
 ---------------------------------------------------------------
      1        1623     -0.1500E+06       0.000    

      1 WELL 

 RIV -- RIVER PACKAGE, VERSION 7, 5/2/2005 INPUT READ FROM UNIT   18

 REACH NO.     NODE       STAGE         CONDUCTANCE     BOTTOM EL.         IFACE           
 ------------------------------------------------------------------------------------------
      1          20       320.0          0.1000E+06       318.0           6.000    
      2          40       320.0          0.1000E+06       318.0           6.000    
      3          60       320.0          0.1000E+06       318.0           6.000    
      4          80       320.0          0.1000E+06       318.0           6.000    
      5         100       320.0          0.1000E+06       318.0           6.000    
      6         120       320.0          0.1000E+06       318.0           6.000    
      7         140       320.0          0.1000E+06       318.0           6.000    
      8         160       320.0          0.1000E+06       318.0           6.000    
      9         195       320.0          0.1000E+06       318.0           6.000    
     10         266       320.0          0.1000E+06       318.0           6.000    
     11         385       320.0          0.1000E+06       318.0           6.000    
     12         456       320.0          0.1000E+06       318.0           6.000    
     13         491       320.0          0.1000E+06       318.0           6.000    
     14         511       320.0          0.1000E+06       318.0           6.000    
     15         531       320.0          0.1000E+06       318.0           6.000    
     16         551       320.0          0.1000E+06       318.0           6.000    
     17         571       320.0          0.1000E+06       318.0           6.000    
     18         591       320.0          0.1000E+06       318.0           6.000    
     19         611       320.0          0.1000E+06       318.0           6.000    
     20         631       320.0          0.1000E+06       318.0           6.000    
     21         651       320.0          0.1000E+06       318.0           6.000    

     21 RIVER REACHES

 RCH -- RECHARGE PACKAGE, VERSION 7, 5/2/2005 INPUT READ FROM UNIT   16

                 RECHARGE =  5.000000E-03
 
 SOLVING FOR HEAD 

 Outer-Iteration  Inner-Iteration    Maximum Head Change  Maximum Head Change
     Number           Count               Value              Location
        1              200                17.021                   632           GWF-node number
        2              200                2.5026                  1621           GWF-node number
        3              200              -0.96924E-01                 1           GWF-node number
        4              197              -0.28583E-02              1623           GWF-node number
        5              117               0.54020E-04                11           GWF-node number
        6               18               0.60488E-05               319           GWF-node number
        7                3               0.20434E-06               197           GWF-node number
        8                2              -0.13478E-07                27           GWF-node number


     8 CALLS TO SPARSE MATRIX SOLVER PACKAGE  IN FLOW TIME STEP   1 STRESS PERIOD   1

 TOTAL OF       8OUTER ITERATIONS
  MAXIMUM CHANGE FOR EACH ITERATION:
   MAX. CHANGE        NODE  MAX. CHANGE        NODE  MAX. CHANGE        NODE  MAX. CHANGE        NODE  MAX. CHANGE        NODE
 ------------------------------------------------------------------------------------------------------------------------------------
    17.021    ,        632   2.5026    ,       1621 -0.96924E-01,          1 -0.28583E-02,       1623  0.54020E-04,         11
   0.60488E-05,        319  0.20434E-06,        197 -0.13478E-07,         27

 OUTPUT CONTROL FOR STRESS PERIOD        1   TIME STEP        1
    PRINT HEAD FOR ALL LAYERS
    PRINT BUDGET
    SAVE HEAD FOR ALL LAYERS
    SAVE BUDGET
 UBDSV2U SAVING "   CONSTANT HEAD" ON UNIT  50 AT TIME STEP      1, STRESS PERIOD      1
 UBDSV1U SAVING "   FLOW JA FACE " ON UNIT  50 AT TIME STEP      1, STRESS PERIOD      1
 UBDSV4U SAVING "           WELLS" ON UNIT  50 AT TIME STEP      1, STRESS PERIOD      1
 UBDSV4U SAVING "   RIVER LEAKAGE" ON UNIT  50 AT TIME STEP      1, STRESS PERIOD      1
 UBDSV3U SAVING "        RECHARGE" ON UNIT  50 AT TIME STEP      1, STRESS PERIOD      1
1
             HEADU IN LAYER       1 AT END OF TIME STEP       1 IN STRESS PERIOD       1 STRESS TIME   1.000000     TOTAL TIME   1.000000    
  -----------------------------------------------------------------------------------------------------------------------------------------
        1..   339.07  339.02  338.90  338.74  338.51  338.21  337.85  337.41  336.89  336.28  335.56  334.72  333.74  332.61  331.28
       16..   329.72  327.90  325.75  323.21  320.18  339.07  339.01  338.90  338.73  338.50  338.21  337.85  337.41  336.89  336.27
       31..   335.56  334.72  333.74  332.60  331.27  329.72  327.90  325.75  323.21  320.18  339.07  339.01  338.90  338.73  338.50
       46..   338.20  337.84  337.40  336.88  336.27  335.55  334.71  333.74  332.60  331.27  329.72  327.89  325.75  323.21  320.18
       61..   339.06  339.01  338.89  338.72  338.49  338.20  337.83  337.39  336.87  336.26  335.54  334.70  333.73  332.59  331.26
       76..   329.71  327.89  325.74  323.20  320.18  339.06  339.00  338.89  338.71  338.48  338.19  337.82  337.38  336.86  336.24
       91..   335.53  334.69  333.72  332.58  331.26  329.70  327.88  325.74  323.20  320.18  339.05  338.99  338.88  338.71  338.47
      106..   338.17  337.81  337.37  336.84  336.23  335.51  334.68  333.70  332.57  331.25  329.70  327.88  325.74  323.20  320.18
      121..   339.04  338.98  338.87  338.70  338.46  338.16  337.79  337.35  336.83  336.21  335.50  334.66  333.69  332.56  331.24
      136..   329.69  327.87  325.73  323.20  320.18  339.04  338.98  338.86  338.69  338.45  338.15  337.78  337.33  336.81  336.19
      151..   335.48  334.65  333.68  332.55  331.23  329.68  327.87  325.73  323.20  320.18  339.03  338.97  338.86  338.68  338.44
      166..   338.14  337.77  337.43  337.19  337.43  337.18  336.93  336.64  336.92  336.63  336.33  336.00  336.33  335.99  335.64
      181..   335.26  335.64  335.25  334.84  334.40  334.84  334.39  333.67  332.54  331.22  329.68  327.86  325.73  323.20  320.18
      196..   339.03  338.97  338.85  338.68  338.44  338.13  337.76  337.42  337.18  337.42  337.17  336.98  336.84  336.70  336.55
      211..   336.98  336.84  336.70  336.55  336.98  336.84  336.69  336.55  336.97  336.84  336.69  336.54  336.40  336.24  336.07
      226..   335.90  336.39  336.23  336.07  335.90  336.39  336.23  336.06  335.89  336.39  336.23  336.06  335.89  335.72  335.54
      241..   335.34  335.14  335.72  335.53  335.34  335.14  335.71  335.53  335.34  335.14  335.71  335.53  335.34  335.14  334.83
      256..   334.39  334.83  334.38  333.66  332.53  331.22  329.67  327.86  325.73  323.19  320.18  339.03  338.97  338.85  338.68
      271..   338.44  338.13  337.76  337.42  337.17  337.42  337.17  336.97  336.84  336.69  336.54  336.97  336.83  336.69  336.54
      286..   336.97  336.83  336.69  336.54  336.97  336.84  336.69  336.54  336.43  336.35  336.27  336.18  336.10  336.02  335.93
      301..   335.84  336.43  336.35  336.27  336.18  336.10  336.02  335.93  335.84  336.42  336.35  336.27  336.18  336.10  336.02
      316..   335.93  335.84  336.42  336.35  336.27  336.18  336.10  336.02  335.93  335.84  336.42  336.35  336.27  336.18  336.10
      331..   336.02  335.93  335.84  336.43  336.35  336.27  336.18  336.10  336.02  335.93  335.84  336.43  336.35  336.27  336.19
      346..   336.10  336.02  335.93  335.85  336.43  336.35  336.27  336.19  336.10  336.02  335.93  335.85  335.71  335.53  335.34
      361..   335.14  335.71  335.53  335.33  335.14  335.71  335.53  335.34  335.14  335.71  335.53  335.34  335.14  334.83  334.38
      376..   334.83  334.38  333.66  332.53  331.22  329.67  327.86  325.72  323.19  320.18  339.03  338.97  338.86  338.68  338.44
      391..   338.14  337.76  337.42  337.18  337.43  337.18  336.98  336.84  336.69  336.54  336.98  336.84  336.70  336.55  336.98
      406..   336.84  336.70  336.55  336.98  336.85  336.70  336.55  336.39  336.23  336.06  335.89  336.39  336.23  336.07  335.89
      421..   336.40  336.24  336.07  335.90  336.40  336.24  336.07  335.90  335.71  335.53  335.34  335.14  335.72  335.53  335.34
      436..   335.14  335.72  335.53  335.34  335.14  335.72  335.54  335.35  335.15  334.83  334.38  334.83  334.39  333.66  332.53
      451..   331.22  329.68  327.86  325.73  323.19  320.18  339.03  338.98  338.86  338.68  338.45  338.14  337.77  337.43  337.19
      466..   337.44  337.19  336.92  336.64  336.93  336.65  336.33  336.00  336.34  336.01  335.64  335.25  335.65  335.26  334.84
      481..   334.39  334.85  334.40  333.67  332.54  331.22  329.68  327.87  325.73  323.20  320.18  339.04  338.98  338.87  338.69
      496..   338.46  338.15  337.78  337.34  336.81  336.20  335.48  334.65  333.68  332.55  331.23  329.69  327.87  325.73  323.20
      511..   320.18  339.05  338.99  338.87  338.70  338.47  338.17  337.80  337.35  336.83  336.22  335.50  334.67  333.69  332.56
      526..   331.24  329.69  327.88  325.73  323.20  320.18  339.05  339.00  338.88  338.71  338.48  338.18  337.81  337.37  336.85
      541..   336.23  335.52  334.68  333.71  332.57  331.25  329.70  327.88  325.74  323.20  320.18  339.06  339.00  338.89  338.72
      556..   338.49  338.19  337.83  337.39  336.86  336.25  335.53  334.70  333.72  332.58  331.26  329.71  327.89  325.74  323.20
      571..   320.18  339.07  339.01  338.90  338.73  338.50  338.20  337.84  337.40  336.88  336.26  335.55  334.71  333.73  332.59
      586..   331.27  329.71  327.89  325.75  323.21  320.18  339.07  339.02  338.90  338.73  338.50  338.21  337.85  337.41  336.89
      601..   336.27  335.56  334.72  333.74  332.60  331.27  329.72  327.90  325.75  323.21  320.18  339.08  339.02  338.91  338.74
      616..   338.51  338.21  337.85  337.41  336.89  336.28  335.56  334.72  333.75  332.61  331.28  329.72  327.90  325.75  323.21
      631..   320.18  339.08  339.02  338.91  338.74  338.51  338.22  337.86  337.42  336.90  336.28  335.57  334.73  333.75  332.61
      646..   331.28  329.72  327.90  325.75  323.21  320.18
1
             HEADU IN LAYER       2 AT END OF TIME STEP       1 IN STRESS PERIOD       1 STRESS TIME   1.000000     TOTAL TIME   1.000000    
  -----------------------------------------------------------------------------------------------------------------------------------------
      652..   335.42  335.38  335.31  335.20  335.05  334.86  334.64  334.37  334.06  333.70  333.28  332.81  332.26  331.64  330.92
      667..   330.09  329.13  328.02  326.72  325.19  335.41  335.38  335.30  335.19  335.04  334.86  334.63  334.36  334.05  333.69
      682..   333.27  332.80  332.25  331.63  330.91  330.09  329.13  328.02  326.71  325.18  335.41  335.37  335.29  335.18  335.03
      697..   334.84  334.62  334.35  334.03  333.67  333.26  332.78  332.24  331.62  330.90  330.08  329.12  328.01  326.71  325.18
      712..   335.40  335.36  335.28  335.17  335.02  334.83  334.59  334.32  334.01  333.64  333.23  332.76  332.22  331.60  330.89
      727..   330.07  329.11  328.00  326.70  325.17  335.38  335.34  335.27  335.15  335.00  334.80  334.56  334.29  333.97  333.61
      742..   333.19  332.73  332.19  331.58  330.87  330.05  329.10  327.99  326.70  325.17  335.37  335.33  335.25  335.13  334.97
      757..   334.77  334.53  334.25  333.92  333.56  333.15  332.69  332.16  331.55  330.85  330.03  329.09  327.98  326.69  325.16
      772..   335.36  335.32  335.23  335.11  334.95  334.74  334.49  334.19  333.86  333.49  333.09  332.63  332.12  331.52  330.82
      787..   330.01  329.07  327.97  326.68  325.15  335.34  335.30  335.22  335.09  334.92  334.70  334.44  334.13  333.78  333.41
      802..   333.01  332.57  332.07  331.48  330.80  330.00  329.06  327.96  326.67  325.15  335.33  335.29  335.21  335.07  334.90
      817..   334.67  334.39  334.15  333.98  334.12  333.93  333.79  333.60  333.73  333.53  333.41  333.21  333.33  333.14  333.02
      832..   332.83  332.96  332.77  332.62  332.40  332.58  332.37  332.02  331.45  330.78  329.98  329.05  327.95  326.66  325.14
      847..   335.33  335.28  335.20  335.06  334.88  334.64  334.35  334.09  333.89  334.06  333.85  333.74  333.63  333.52  333.41
      862..   333.71  333.60  333.48  333.36  333.68  333.56  333.43  333.30  333.66  333.53  333.39  333.24  333.30  333.20  333.11
      877..   333.02  333.24  333.14  333.05  332.96  333.17  333.06  332.97  332.90  333.08  332.95  332.87  332.82  332.94  332.86
      892..   332.77  332.69  332.89  332.82  332.74  332.66  332.84  332.78  332.71  332.64  332.78  332.74  332.68  332.61  332.54
      907..   332.34  332.50  332.31  331.98  331.43  330.76  329.97  329.04  327.95  326.66  325.14  335.33  335.28  335.19  335.06
      922..   334.87  334.63  334.33  334.05  333.83  334.05  333.83  333.64  333.50  333.35  333.17  333.63  333.49  333.33  333.13
      937..   333.64  333.50  333.33  333.15  333.65  333.52  333.37  333.20  333.05  332.95  332.86  332.80  332.77  332.76  332.76
      952..   332.76  333.00  332.88  332.76  332.67  332.67  332.69  332.71  332.72  332.96  332.81  332.63  332.46  332.54  332.62
      967..   332.67  332.70  332.94  332.77  332.51  332.03  332.41  332.57  332.65  332.69  332.96  332.81  332.63  332.46  332.54
      982..   332.62  332.67  332.70  333.00  332.88  332.76  332.67  332.67  332.69  332.71  332.72  333.05  332.95  332.86  332.80
      997..   332.77  332.76  332.76  332.76  333.10  333.02  332.94  332.89  332.85  332.82  332.81  332.79  332.73  332.71  332.66
     1012..   332.60  332.71  332.69  332.65  332.59  332.72  332.70  332.65  332.60  332.76  332.72  332.67  332.61  332.48  332.30
     1027..   332.49  332.30  331.97  331.42  330.76  329.97  329.04  327.94  326.66  325.14  335.33  335.29  335.20  335.06  334.88
     1042..   334.65  334.35  334.07  333.86  334.10  333.90  333.67  333.55  333.41  333.27  333.70  333.58  333.46  333.33  333.73
     1057..   333.62  333.50  333.39  333.76  333.65  333.54  333.44  333.13  333.01  332.92  332.86  333.21  333.10  333.01  332.93
     1072..   333.28  333.17  333.08  332.99  333.33  333.23  333.14  333.05  332.81  332.76  332.70  332.63  332.87  332.80  332.73
     1087..   332.65  332.92  332.84  332.76  332.67  332.96  332.88  332.79  332.70  332.51  332.32  332.55  332.34  331.99  331.43
     1102..   330.76  329.97  329.04  327.95  326.66  325.14  335.34  335.29  335.21  335.08  334.90  334.67  334.39  334.13  333.95
     1117..   334.16  333.99  333.75  333.55  333.81  333.62  333.35  333.16  333.42  333.23  332.98  332.79  333.04  332.84  332.59
     1132..   332.37  332.63  332.41  332.03  331.46  330.78  329.98  329.05  327.95  326.67  325.14  335.35  335.31  335.22  335.10
     1147..   334.92  334.71  334.45  334.14  333.79  333.42  333.02  332.58  332.08  331.49  330.80  330.00  329.06  327.96  326.67
     1162..   325.15  335.36  335.32  335.24  335.12  334.95  334.74  334.49  334.20  333.87  333.51  333.10  332.64  332.12  331.52
     1177..   330.83  330.02  329.08  327.97  326.68  325.16  335.38  335.34  335.26  335.14  334.98  334.78  334.54  334.26  333.93
     1192..   333.57  333.16  332.69  332.17  331.56  330.85  330.04  329.09  327.99  326.69  325.16  335.39  335.35  335.27  335.16
     1207..   335.00  334.81  334.57  334.30  333.98  333.62  333.21  332.74  332.20  331.59  330.88  330.06  329.10  328.00  326.70
     1222..   325.17  335.40  335.36  335.29  335.18  335.02  334.83  334.60  334.33  334.02  333.65  333.24  332.77  332.23  331.61
     1237..   330.90  330.07  329.12  328.01  326.71  325.18  335.41  335.38  335.30  335.19  335.04  334.85  334.62  334.35  334.04
     1252..   333.68  333.27  332.79  332.25  331.63  330.91  330.08  329.13  328.02  326.71  325.18  335.42  335.38  335.31  335.20
     1267..   335.05  334.87  334.64  334.37  334.06  333.70  333.28  332.81  332.26  331.64  330.92  330.09  329.13  328.02  326.72
     1282..   325.19  335.42  335.39  335.31  335.20  335.06  334.87  334.65  334.38  334.07  333.71  333.29  332.81  332.27  331.64
     1297..   330.93  330.10  329.14  328.02  326.72  325.19
1
             HEADU IN LAYER       3 AT END OF TIME STEP       1 IN STRESS PERIOD       1 STRESS TIME   1.000000     TOTAL TIME   1.000000    
  -----------------------------------------------------------------------------------------------------------------------------------------
     1303..   331.76  331.75  331.71  331.66  331.60  331.52  331.43  331.33  331.23  331.12  331.00  330.89  330.78  330.67  330.56
     1318..   330.46  330.37  330.29  330.23  330.19  331.76  331.74  331.70  331.65  331.59  331.51  331.42  331.32  331.21  331.10
     1333..   330.99  330.88  330.77  330.66  330.55  330.45  330.36  330.28  330.22  330.19  331.75  331.73  331.69  331.64  331.57
     1348..   331.49  331.39  331.29  331.19  331.08  330.96  330.85  330.75  330.64  330.54  330.44  330.35  330.27  330.21  330.18
     1363..   331.73  331.71  331.67  331.62  331.55  331.46  331.36  331.25  331.14  331.03  330.92  330.82  330.71  330.61  330.51
     1378..   330.42  330.33  330.26  330.20  330.17  331.71  331.69  331.65  331.59  331.51  331.42  331.31  331.20  331.08  330.97
     1393..   330.86  330.76  330.67  330.57  330.48  330.40  330.31  330.24  330.19  330.16  331.69  331.67  331.63  331.56  331.47
     1408..   331.37  331.25  331.13  331.00  330.89  330.79  330.69  330.61  330.53  330.45  330.37  330.29  330.22  330.17  330.14
     1423..   331.67  331.65  331.60  331.53  331.43  331.32  331.18  331.04  330.90  330.78  330.68  330.61  330.54  330.48  330.41
     1438..   330.34  330.27  330.21  330.16  330.13  331.66  331.63  331.58  331.50  331.39  331.26  331.10  330.92  330.75  330.62
     1453..   330.54  330.50  330.46  330.42  330.37  330.31  330.25  330.19  330.14  330.11  331.64  331.61  331.56  331.47  331.35
     1468..   331.20  331.01  330.87  330.77  330.81  330.68  330.66  330.56  330.55  330.43  330.48  330.43  330.33  330.28  330.40
     1483..   330.40  330.28  330.30  330.40  330.40  330.32  330.34  330.38  330.36  330.33  330.28  330.23  330.18  330.13  330.10
     1498..   331.63  331.60  331.54  331.45  331.32  331.15  330.94  330.75  330.60  330.71  330.53  330.50  330.42  330.35  330.27
     1513..   330.45  330.36  330.26  330.17  330.40  330.29  330.17  330.06  330.35  330.22  330.08  329.93  330.21  330.17  330.15
     1528..   330.14  330.10  330.04  330.03  330.04  329.95  329.89  329.87  329.91  329.78  329.67  329.67  329.76  330.16  330.18
     1543..   330.20  330.23  330.07  330.10  330.14  330.18  329.96  330.03  330.08  330.13  329.86  329.95  330.03  330.09  330.25
     1558..   330.29  330.18  330.24  330.31  330.32  330.31  330.27  330.22  330.17  330.12  330.10  331.63  331.60  331.54  331.44
     1573..   331.31  331.14  330.91  330.68  330.49  330.68  330.49  330.32  330.17  330.01  329.80  330.30  330.15  329.97  329.72
     1588..   330.30  330.16  329.98  329.75  330.33  330.20  330.04  329.87  329.67  329.56  329.46  329.41  329.44  329.50  329.59
     1603..   329.67  329.57  329.42  329.26  329.16  329.23  329.36  329.49  329.60  329.49  329.28  329.01  328.74  328.98  329.22
     1618..   329.41  329.55  329.45  329.19  328.75  327.80  328.72  329.13  329.37  329.53  329.49  329.28  329.01  328.74  328.98
     1633..   329.22  329.41  329.55  329.57  329.42  329.26  329.16  329.24  329.36  329.49  329.60  329.67  329.56  329.46  329.41
     1648..   329.44  329.51  329.59  329.67  329.77  329.69  329.62  329.59  329.59  329.63  329.69  329.74  329.76  329.89  329.99
     1663..   330.06  329.71  329.86  329.97  330.05  329.73  329.87  329.98  330.06  329.81  329.92  330.01  330.08  330.14  330.22
     1678..   330.15  330.23  330.29  330.31  330.30  330.26  330.21  330.16  330.12  330.10  331.63  331.60  331.54  331.45  331.33
     1693..   331.16  330.95  330.72  330.55  330.77  330.62  330.37  330.26  330.13  330.00  330.42  330.32  330.22  330.12  330.48
     1708..   330.39  330.31  330.23  330.53  330.46  330.39  330.32  329.87  329.79  329.78  329.84  330.03  329.97  329.96  329.98
     1723..   330.16  330.11  330.09  330.09  330.26  330.22  330.20  330.19  329.91  329.99  330.06  330.11  330.02  330.07  330.11
     1738..   330.16  330.11  330.14  330.17  330.21  330.20  330.22  330.24  330.26  330.20  330.25  330.27  330.30  330.32  330.33
     1753..   330.31  330.27  330.22  330.17  330.13  330.10  331.65  331.62  331.56  331.47  331.36  331.21  331.02  330.83  330.71
     1768..   330.89  330.79  330.58  330.47  330.69  330.59  330.38  330.33  330.51  330.46  330.32  330.33  330.44  330.42  330.34
     1783..   330.36  330.42  330.42  330.39  330.37  330.34  330.29  330.23  330.18  330.13  330.11  331.66  331.64  331.58  331.50
     1798..   331.40  331.27  331.11  330.94  330.78  330.65  330.56  330.51  330.47  330.43  330.37  330.31  330.25  330.19  330.15
     1813..   330.12  331.68  331.66  331.61  331.54  331.44  331.33  331.20  331.05  330.92  330.80  330.70  330.62  330.55  330.49
     1828..   330.42  330.35  330.28  330.21  330.16  330.13  331.70  331.68  331.64  331.57  331.49  331.38  331.27  331.14  331.02
     1843..   330.91  330.80  330.71  330.62  330.54  330.46  330.38  330.30  330.23  330.18  330.15  331.72  331.70  331.66  331.60
     1858..   331.52  331.43  331.33  331.21  331.10  330.99  330.88  330.78  330.68  330.59  330.49  330.40  330.32  330.25  330.19
     1873..   330.16  331.74  331.72  331.68  331.63  331.56  331.47  331.37  331.27  331.16  331.05  330.94  330.83  330.73  330.62
     1888..   330.52  330.43  330.34  330.27  330.21  330.18  331.76  331.74  331.70  331.65  331.58  331.50  331.41  331.31  331.20
     1903..   331.09  330.98  330.87  330.76  330.65  330.55  330.45  330.36  330.28  330.22  330.19  331.77  331.75  331.71  331.66
     1918..   331.60  331.52  331.43  331.33  331.22  331.12  331.00  330.89  330.78  330.67  330.56  330.46  330.37  330.29  330.23
     1933..   330.19  331.77  331.76  331.72  331.67  331.61  331.53  331.44  331.34  331.24  331.13  331.02  330.90  330.79  330.68
     1948..   330.57  330.47  330.37  330.29  330.23  330.20

 HEAD WILL BE SAVED ON UNIT   51 AT END OF TIME STEP   1, STRESS PERIOD    1
1
  VOLUMETRIC BUDGET FOR ENTIRE MODEL AT END OF TIME STEP       1 IN STRESS PERIOD       1
  ---------------------------------------------------------------------------------------

     CUMULATIVE VOLUMES      L**3       RATES FOR THIS TIME STEP      L**3/T
     ------------------                 ------------------------

           IN:                                      IN:
           ---                                      ---
             STORAGE =           0.0000               STORAGE =           0.0000
       CONSTANT HEAD =           0.0000         CONSTANT HEAD =           0.0000
               WELLS =           0.0000                 WELLS =           0.0000
       RIVER LEAKAGE =           0.0000         RIVER LEAKAGE =           0.0000
            RECHARGE =      525000.0000              RECHARGE =      525000.0000

            TOTAL IN =      525000.0000              TOTAL IN =      525000.0000

          OUT:                                     OUT:
          ----                                     ----
             STORAGE =           0.0000               STORAGE =           0.0000
       CONSTANT HEAD =           0.0000         CONSTANT HEAD =           0.0000
               WELLS =      150000.0000                 WELLS =      150000.0000
       RIVER LEAKAGE =      374998.7500         RIVER LEAKAGE =      374998.7500
            RECHARGE =           0.0000              RECHARGE =           0.0000

           TOTAL OUT =      524998.7500             TOTAL OUT =      524998.7500

            IN - OUT =           1.2500              IN - OUT =           1.2500

 PERCENT DISCREPANCY =           0.00     PERCENT DISCREPANCY =           0.00






          TIME SUMMARY AT END OF TIME STEP         1 IN STRESS PERIOD         1
                          TIME STEP LENGTH =   1.000000    
                        STRESS PERIOD TIME =   1.000000    
                     TOTAL SIMULATION TIME =   1.000000    
1

 Run end date and time (yyyy/mm/dd hh:mm:ss): 2016/02/03 13:17:30
 Elapsed run time:  0.312 Seconds

