                                  MODFLOW-2000
      U.S. GEOLOGICAL SURVEY MODULAR FINITE-DIFFERENCE GROUND-WATER FLOW MODEL
                             VERSION 1.1 01/17/2001


 This model run combines GLOBAL and LIST output into this single file.

 GLOBAL LISTING FILE: DEMO-S.LST
                         UNIT   1

 OPENING DEMO-S.DIS
 FILE TYPE:DIS   UNIT   9

 OPENING DEMO-S.BA6
 FILE TYPE:BAS6   UNIT   2

 OPENING DEMO-S.BC6
 FILE TYPE:BCF6   UNIT  11

 OPENING DEMO-S.OC
 FILE TYPE:OC   UNIT  12

 OPENING DEMO-S.RCH
 FILE TYPE:RCH   UNIT  13

 OPENING DEMO-S.WEL
 FILE TYPE:WEL   UNIT  14

 OPENING DEMO-S.SIP
 FILE TYPE:SIP   UNIT  15

 OPENING DEMO-S.RIV
 FILE TYPE:RIV   UNIT  16

 OPENING DEMO-S.HED
 FILE TYPE:DATA(BINARY)   UNIT  30

 OPENING DEMO-S.BUD
 FILE TYPE:DATA(BINARY)   UNIT  32

 DISCRETIZATION INPUT DATA READ FROM UNIT  9
    5 LAYERS        27 ROWS        27 COLUMNS
   1 STRESS PERIOD(S) IN SIMULATION
 MODEL TIME UNIT IS UNDEFINED
 MODEL LENGTH UNIT IS UNDEFINED
 THE GROUND-WATER TRANSPORT PROCESS IS INACTIVE

 THE OBSERVATION PROCESS IS INACTIVE
 THE SENSITIVITY PROCESS IS INACTIVE
 THE PARAMETER-ESTIMATION PROCESS IS INACTIVE

 MODE: FORWARD

  Confining bed flag for each layer:
   1   0   0   0   0

      33588  ELEMENTS OF GX ARRAY USED OUT OF      33588
       3645  ELEMENTS OF GZ ARRAY USED OUT OF       3645
       3645  ELEMENTS OF IG ARRAY USED OUT OF       3645



                               DELR
 READING ON UNIT   9 WITH FORMAT:            (10F10.0)
   400.00       400.00       400.00       400.00       400.00       400.00       400.00       400.00       300.00       200.00    
   150.00       100.00       60.000       40.000       60.000       100.00       150.00       200.00       300.00       400.00    
   400.00       400.00       400.00       400.00       400.00       400.00       400.00    



                               DELC
 READING ON UNIT   9 WITH FORMAT:            (10F10.0)
   400.00       400.00       400.00       400.00       400.00       400.00       400.00       400.00       300.00       200.00    
   150.00       100.00       60.000       40.000       60.000       100.00       150.00       200.00       300.00       400.00    
   400.00       400.00       400.00       400.00       400.00       400.00       400.00    

 TOP ELEVATION OF LAYER 1 =   500.000    

   MODEL LAYER BOTTOM EL. =   220.000     FOR LAYER   1

 BOT. EL. OF QUASI-3D BED =   200.000     FOR LAYER   1

   MODEL LAYER BOTTOM EL. =   150.000     FOR LAYER   2

   MODEL LAYER BOTTOM EL. =   100.000     FOR LAYER   3

   MODEL LAYER BOTTOM EL. =   50.0000     FOR LAYER   4

   MODEL LAYER BOTTOM EL. =   0.00000     FOR LAYER   5


 STRESS PERIOD     LENGTH       TIME STEPS     MULTIPLIER FOR DELT    SS FLAG
 ----------------------------------------------------------------------------
        1         1.000000          1                    1.000         SS

 STEADY-STATE SIMULATION




 SIP5 -- STRONGLY IMPLICIT PROCEDURE SOLUTION PACKAGE
                    VERSION 5, 9/1/93 INPUT READ FROM UNIT 15
 MAXIMUM OF 400 ITERATIONS ALLOWED FOR CLOSURE
  5 ITERATION PARAMETERS
      14985 ELEMENTS IN X ARRAY ARE USED BY SIP
       1200 ELEMENTS IN IX ARRAY ARE USED BY SIP

      14985  ELEMENTS OF X ARRAY USED OUT OF      14985
          0  ELEMENTS OF Z ARRAY USED OUT OF          1
       1200  ELEMENTS OF IX ARRAY USED OUT OF       1200
          0  ELEMENTS OF XHS ARRAY USED OUT OF          1



          SOLUTION BY THE STRONGLY IMPLICIT PROCEDURE
          -------------------------------------------
 MAXIMUM ITERATIONS ALLOWED FOR CLOSURE =      400
                 ACCELERATION PARAMETER =     1.0000    
      HEAD CHANGE CRITERION FOR CLOSURE =    0.10000E-03
      SIP HEAD CHANGE PRINTOUT INTERVAL =        1

     5 ITERATION PARAMETERS CALCULATED FROM SPECIFIED WSEED = 0.00050000 :

  0.000000E+00 0.850465E+00 0.977639E+00 0.996656E+00 0.999500E+00
 
 #MODPATH SAMPLE PROBLEM                                                         
 #                                                                               
    5 LAYERS        27 ROWS        27 COLUMNS
   1 STRESS PERIOD(S) IN SIMULATION

 BAS6 -- BASIC PACKAGE, VERSION 6, 1/11/2000 INPUT READ FROM UNIT  2
         25 ELEMENTS IN IR ARRAY ARE USED BY BAS

 BCF6 -- BLOCK-CENTERED FLOW PACKAGE, VERSION 6, 1/11/2000
         INPUT READ FROM UNIT 11
 STEADY-STATE SIMULATION
 CELL-BY-CELL FLOWS WILL BE SAVED ON UNIT 32
 HEAD AT CELLS THAT CONVERT TO DRY=  0.10000E+31
 WETTING CAPABILITY IS NOT ACTIVE
      LAYER  LAYER-TYPE CODE     INTERBLOCK T
      --------------------------------------------
         1            1          0 -- HARMONIC    
         2            0          0 -- HARMONIC    
         3            0          0 -- HARMONIC    
         4            0          0 -- HARMONIC    
         5            0          0 -- HARMONIC    
       3650 ELEMENTS IN RX ARRAY ARE USED BY BCF

 WEL6 -- WELL PACKAGE, VERSION 6, 1/11/2000 INPUT READ FROM UNIT 14
 No named parameters
 MAXIMUM OF    1 ACTIVE WELLS AT ONE TIME
 CELL-BY-CELL FLOWS WILL BE SAVED ON UNIT 32
 AUXILIARY WELL VARIABLE: IFACE           
          5 ELEMENTS IN RX ARRAY ARE USED BY WEL

 RIV6 -- RIVER PACKAGE, VERSION 6, 1/11/2000 INPUT READ FROM UNIT 16
 No named parameters
 MAXIMUM OF   27 ACTIVE RIVER REACHES AT ONE TIME
 CELL-BY-CELL FLOWS WILL BE SAVED ON UNIT 32
 AUXILIARY RIVER VARIABLE: IFACE           
        189 ELEMENTS IN RX ARRAY ARE USED BY RIV

 RCH6 -- RECHARGE PACKAGE, VERSION 6, 1/11/2000 INPUT READ FROM UNIT 13
 No named parameters
 OPTION 1 -- RECHARGE TO TOP LAYER
 CELL-BY-CELL FLOWS WILL BE SAVED ON UNIT 32
        729 ELEMENTS IN RX ARRAY ARE USED BY RCH
        729 ELEMENTS IN IR ARRAY ARE USED BY RCH

       4573  ELEMENTS OF RX ARRAY USED OUT OF       4573
        754  ELEMENTS OF IR ARRAY USED OUT OF        754
1
 #MODPATH SAMPLE PROBLEM                                                         
 #                                                                               

           BOUNDARY ARRAY =              1 FOR LAYER   1

           BOUNDARY ARRAY =              1 FOR LAYER   2

           BOUNDARY ARRAY =              1 FOR LAYER   3

           BOUNDARY ARRAY =              1 FOR LAYER   4

           BOUNDARY ARRAY =              1 FOR LAYER   5

 AQUIFER HEAD WILL BE SET TO  999.90     AT ALL NO-FLOW NODES (IBOUND=0).

             INITIAL HEAD =   280.000     FOR LAYER   1

             INITIAL HEAD =   280.000     FOR LAYER   2

             INITIAL HEAD =   280.000     FOR LAYER   3

             INITIAL HEAD =   280.000     FOR LAYER   4

             INITIAL HEAD =   280.000     FOR LAYER   5

 OUTPUT CONTROL IS SPECIFIED ONLY AT TIME STEPS FOR WHICH OUTPUT IS DESIRED
 COMPACT CELL-BY-CELL BUDGET FILES WILL BE WRITTEN
 AUXILIARY DATA WILL BE SAVED IN CELL-BY-CELL BUDGET FILES
 HEAD PRINT FORMAT CODE IS   4    DRAWDOWN PRINT FORMAT CODE IS   4
 HEADS WILL BE SAVED ON UNIT  30    DRAWDOWNS WILL BE SAVED ON UNIT   0

 COLUMN TO ROW ANISOTROPY =   1.00000    

    HYD. COND. ALONG ROWS =   50.0000     FOR LAYER   1

 VERT HYD COND /THICKNESS =  5.000000E-04 FOR LAYER   1

     TRANSMIS. ALONG ROWS =   1250.00     FOR LAYER   2

 VERT HYD COND /THICKNESS =  1.000000E-02 FOR LAYER   2

     TRANSMIS. ALONG ROWS =   1250.00     FOR LAYER   3

 VERT HYD COND /THICKNESS =  1.000000E-02 FOR LAYER   3

     TRANSMIS. ALONG ROWS =   1250.00     FOR LAYER   4

 VERT HYD COND /THICKNESS =  1.000000E-02 FOR LAYER   4

     TRANSMIS. ALONG ROWS =   1250.00     FOR LAYER   5


     0 Well parameters


     0 River parameters


     0 Recharge parameters
1
                            STRESS PERIOD NO.   1, LENGTH =   1.000000    
                            ----------------------------------------------

                              NUMBER OF TIME STEPS =     1

                               MULTIPLIER FOR DELT =     1.000

                            INITIAL TIME STEP SIZE =   1.000000    

 WELL NO.  LAYER   ROW   COL   STRESS RATE   IFACE           
 ------------------------------------------------------------
      1      4     14     14     -0.8000E+05       0.000    

     1 WELLS

 REACH NO.  LAYER   ROW   COL     STAGE      CONDUCTANCE     BOTTOM EL.   IFACE           
 -----------------------------------------------------------------------------------------
      1      1      1     27       280.0           3200.           275.0           6.000    
      2      1      2     27       280.0           3200.           275.0           6.000    
      3      1      3     27       280.0           3200.           275.0           6.000    
      4      1      4     27       280.0           3200.           275.0           6.000    
      5      1      5     27       280.0           3200.           275.0           6.000    
      6      1      6     27       280.0           3200.           275.0           6.000    
      7      1      7     27       280.0           3200.           275.0           6.000    
      8      1      8     27       280.0           3200.           275.0           6.000    
      9      1      9     27       280.0           2400.           275.0           6.000    
     10      1     10     27       280.0           1600.           275.0           6.000    
     11      1     11     27       280.0           1200.           275.0           6.000    
     12      1     12     27       280.0           800.0           275.0           6.000    
     13      1     13     27       280.0           480.0           275.0           6.000    
     14      1     14     27       280.0           320.0           275.0           6.000    
     15      1     15     27       280.0           480.0           275.0           6.000    
     16      1     16     27       280.0           800.0           275.0           6.000    
     17      1     17     27       280.0           1200.           275.0           6.000    
     18      1     18     27       280.0           1600.           275.0           6.000    
     19      1     19     27       280.0           2400.           275.0           6.000    
     20      1     20     27       280.0           3200.           275.0           6.000    
     21      1     21     27       280.0           3200.           275.0           6.000    
     22      1     22     27       280.0           3200.           275.0           6.000    
     23      1     23     27       280.0           3200.           275.0           6.000    
     24      1     24     27       280.0           3200.           275.0           6.000    
     25      1     25     27       280.0           3200.           275.0           6.000    
     26      1     26     27       280.0           3200.           275.0           6.000    
     27      1     27     27       280.0           3200.           275.0           6.000    

    27 RIVER REACHES

                 RECHARGE =  4.500000E-03
 
 SOLVING FOR HEAD 

    41 ITERATIONS FOR TIME STEP   1 IN STRESS PERIOD  1

 MAXIMUM HEAD CHANGE FOR EACH ITERATION:

    HEAD CHANGE   HEAD CHANGE   HEAD CHANGE   HEAD CHANGE   HEAD CHANGE
  LAYER,ROW,COL LAYER,ROW,COL LAYER,ROW,COL LAYER,ROW,COL LAYER,ROW,COL
 ----------------------------------------------------------------------
     -27.30        -8.403        -5.814         5.246         8.707    
  (  4, 14, 14) (  4, 13, 15) (  4, 13, 13) (  1, 16,  1) (  1, 13, 12)
    -0.5508       -0.8039       -0.8102         1.632         2.889    
  (  1, 27, 26) (  1, 26, 25) (  1, 24, 23) (  5,  2,  1) (  3, 17,  1)
     0.8460E-01    0.1231        0.2778        0.5792         2.646    
  (  1, 19, 19) (  1, 20, 18) (  5,  3, 27) (  2, 24, 13) (  5,  6, 22)
    -0.1433       -0.1922       -0.2408        0.2249        0.2928    
  (  1,  7, 26) (  1,  6, 25) (  1, 13, 24) (  5,  6,  4) (  4, 17,  1)
     0.9466E-02    0.1405E-01    0.2468E-01    0.4746E-01    0.1496    
  (  1, 20,  8) (  1, 21,  6) (  5, 15, 27) (  2, 19,  1) (  5, 10,  1)
    -0.7943E-02   -0.9960E-02   -0.1095E-01    0.1708E-01    0.2653E-01
  (  1, 27, 26) (  1, 26, 25) (  1, 14, 24) (  5, 12, 12) (  5, 19,  1)
     0.8084E-03    0.1142E-02    0.2533E-02    0.5028E-02    0.2199E-01
  (  1, 20,  8) (  1, 21,  7) (  5,  3, 27) (  2, 27,  1) (  5,  2,  1)
    -0.1139E-02   -0.1416E-02   -0.1653E-02    0.1801E-02    0.3120E-02
  (  1, 27, 26) (  1, 26, 25) (  1, 14, 24) (  5, 15,  2) (  4, 18,  1)
     0.8423E-04
  (  1, 20,  8)


 OUTPUT CONTROL FOR STRESS PERIOD  1   TIME STEP  1
    PRINT HEAD FOR ALL LAYERS
    SAVE HEAD FOR ALL LAYERS
    SAVE BUDGET
 UBDSV2 SAVING "   CONSTANT HEAD" ON UNIT  32 AT TIME STEP  1, STRESS PERIOD  1
 UBDSV1 SAVING "FLOW RIGHT FACE " ON UNIT  32 AT TIME STEP  1, STRESS PERIOD  1
 UBDSV1 SAVING "FLOW FRONT FACE " ON UNIT  32 AT TIME STEP  1, STRESS PERIOD  1
 UBDSV1 SAVING "FLOW LOWER FACE " ON UNIT  32 AT TIME STEP  1, STRESS PERIOD  1
 UBDSV4 SAVING "           WELLS" ON UNIT  32 AT TIME STEP  1, STRESS PERIOD  1
 UBDSV4 SAVING "   RIVER LEAKAGE" ON UNIT  32 AT TIME STEP  1, STRESS PERIOD  1
 UBDSV3 SAVING "        RECHARGE" ON UNIT  32 AT TIME STEP  1, STRESS PERIOD  1
1
              HEAD IN LAYER  1 AT END OF TIME STEP  1 IN STRESS PERIOD  1
  -----------------------------------------------------------------------

           1       2       3       4       5       6       7       8       9      10      11      12      13      14      15
          16      17      18      19      20      21      22      23      24      25      26      27
 ...........................................................................................................................
   1   302.73  302.66  302.51  302.29  302.00  301.63  301.18  300.65  300.12  299.70  299.39  299.15  298.99  298.89  298.79
       298.63  298.36  297.97  297.38  296.47  295.29  293.95  292.41  290.64  288.58  286.17  283.31
   2   302.73  302.65  302.51  302.29  301.99  301.62  301.17  300.64  300.11  299.69  299.37  299.14  298.98  298.88  298.78
       298.62  298.35  297.96  297.37  296.46  295.28  293.94  292.40  290.63  288.58  286.17  283.31
   3   302.72  302.64  302.50  302.27  301.98  301.60  301.15  300.62  300.09  299.67  299.35  299.11  298.96  298.86  298.76
       298.59  298.33  297.94  297.35  296.44  295.26  293.92  292.39  290.62  288.57  286.16  283.31
   4   302.70  302.63  302.48  302.26  301.96  301.58  301.13  300.59  300.06  299.63  299.32  299.08  298.92  298.83  298.72
       298.56  298.30  297.91  297.32  296.41  295.24  293.90  292.37  290.60  288.55  286.15  283.30
   5   302.69  302.61  302.46  302.23  301.93  301.55  301.09  300.56  300.02  299.59  299.28  299.04  298.88  298.78  298.68
       298.52  298.25  297.86  297.28  296.37  295.20  293.87  292.34  290.58  288.54  286.14  283.30
   6   302.67  302.59  302.44  302.21  301.90  301.52  301.06  300.51  299.97  299.54  299.23  298.99  298.83  298.73  298.63
       298.47  298.20  297.82  297.23  296.33  295.16  293.84  292.32  290.56  288.52  286.13  283.29
   7   302.65  302.58  302.42  302.19  301.88  301.49  301.02  300.47  299.92  299.49  299.17  298.93  298.78  298.68  298.58
       298.41  298.15  297.76  297.18  296.28  295.12  293.80  292.29  290.54  288.51  286.12  283.28
   8   302.64  302.56  302.40  302.17  301.85  301.46  300.98  300.43  299.87  299.44  299.12  298.88  298.72  298.62  298.52
       298.36  298.09  297.71  297.13  296.24  295.09  293.77  292.27  290.52  288.49  286.11  283.28
   9   302.63  302.55  302.39  302.15  301.83  301.44  300.96  300.40  299.84  299.40  299.08  298.84  298.68  298.58  298.48
       298.32  298.05  297.67  297.09  296.21  295.06  293.75  292.25  290.51  288.48  286.10  283.27
  10   302.62  302.55  302.39  302.15  301.83  301.43  300.94  300.38  299.82  299.38  299.06  298.82  298.66  298.56  298.46
       298.30  298.03  297.65  297.07  296.19  295.05  293.74  292.24  290.50  288.48  286.10  283.27
  11   302.62  302.54  302.38  302.14  301.82  301.42  300.94  300.37  299.81  299.37  299.05  298.81  298.65  298.55  298.45
       298.28  298.02  297.64  297.06  296.18  295.04  293.74  292.24  290.50  288.48  286.10  283.27
  12   302.62  302.54  302.38  302.14  301.82  301.42  300.94  300.37  299.81  299.37  299.04  298.80  298.65  298.55  298.44
       298.28  298.02  297.64  297.06  296.18  295.04  293.74  292.24  290.50  288.47  286.10  283.27
  13   302.62  302.54  302.38  302.14  301.82  301.42  300.94  300.37  299.81  299.37  299.04  298.80  298.64  298.54  298.44
       298.28  298.02  297.64  297.06  296.18  295.04  293.74  292.24  290.50  288.47  286.10  283.27
  14   302.62  302.54  302.38  302.14  301.82  301.42  300.94  300.37  299.81  299.37  299.04  298.80  298.64  298.54  298.44
       298.28  298.02  297.64  297.06  296.18  295.04  293.74  292.24  290.50  288.47  286.10  283.27
  15   302.62  302.54  302.38  302.14  301.82  301.42  300.94  300.37  299.81  299.37  299.04  298.80  298.64  298.54  298.44
       298.28  298.02  297.64  297.06  296.18  295.04  293.74  292.24  290.50  288.47  286.10  283.27
  16   302.62  302.54  302.38  302.14  301.82  301.42  300.94  300.37  299.81  299.37  299.04  298.80  298.65  298.55  298.44
       298.28  298.02  297.64  297.06  296.18  295.04  293.74  292.24  290.50  288.47  286.10  283.27
  17   302.62  302.54  302.38  302.14  301.82  301.42  300.94  300.37  299.81  299.37  299.05  298.81  298.65  298.55  298.45
       298.28  298.02  297.64  297.06  296.18  295.04  293.74  292.24  290.50  288.48  286.10  283.27
  18   302.62  302.55  302.39  302.15  301.83  301.43  300.94  300.38  299.82  299.38  299.06  298.82  298.66  298.56  298.46
       298.30  298.03  297.65  297.07  296.19  295.05  293.74  292.24  290.50  288.48  286.10  283.27
  19   302.63  302.55  302.39  302.15  301.83  301.44  300.96  300.40  299.84  299.40  299.08  298.84  298.68  298.58  298.48
       298.32  298.05  297.67  297.09  296.21  295.06  293.75  292.25  290.51  288.48  286.10  283.27
  20   302.64  302.56  302.40  302.17  301.85  301.46  300.98  300.43  299.87  299.44  299.12  298.88  298.72  298.62  298.52
       298.36  298.09  297.71  297.13  296.24  295.09  293.77  292.27  290.52  288.49  286.11  283.28
  21   302.65  302.58  302.42  302.19  301.88  301.49  301.02  300.47  299.92  299.49  299.17  298.93  298.78  298.68  298.58
       298.41  298.15  297.76  297.18  296.28  295.12  293.80  292.29  290.54  288.51  286.12  283.28
  22   302.67  302.59  302.44  302.21  301.90  301.52  301.06  300.51  299.97  299.54  299.23  298.99  298.83  298.73  298.63
       298.47  298.20  297.82  297.23  296.33  295.16  293.84  292.32  290.56  288.52  286.13  283.29
  23   302.69  302.61  302.46  302.23  301.93  301.55  301.09  300.56  300.02  299.59  299.27  299.04  298.88  298.78  298.68
       298.52  298.25  297.86  297.28  296.37  295.20  293.87  292.34  290.58  288.54  286.14  283.30
  24   302.70  302.63  302.48  302.25  301.95  301.58  301.13  300.59  300.06  299.63  299.32  299.08  298.92  298.83  298.72
       298.56  298.30  297.91  297.32  296.41  295.24  293.90  292.37  290.60  288.55  286.15  283.30
  25   302.72  302.64  302.50  302.27  301.98  301.60  301.15  300.62  300.09  299.67  299.35  299.11  298.96  298.86  298.76
       298.59  298.33  297.94  297.35  296.44  295.26  293.92  292.39  290.62  288.57  286.16  283.31
  26   302.73  302.65  302.51  302.29  301.99  301.62  301.17  300.64  300.11  299.69  299.37  299.14  298.98  298.88  298.78
       298.62  298.35  297.96  297.37  296.46  295.28  293.94  292.40  290.63  288.58  286.17  283.31
  27   302.73  302.66  302.51  302.29  302.00  301.63  301.18  300.65  300.12  299.70  299.39  299.15  298.99  298.89  298.79
       298.63  298.36  297.97  297.38  296.47  295.29  293.95  292.41  290.64  288.58  286.17  283.31
1
              HEAD IN LAYER  2 AT END OF TIME STEP  1 IN STRESS PERIOD  1
  -----------------------------------------------------------------------

           1       2       3       4       5       6       7       8       9      10      11      12      13      14      15
          16      17      18      19      20      21      22      23      24      25      26      27
 ...........................................................................................................................
   1   297.79  297.72  297.60  297.41  297.17  296.87  296.53  296.16  295.81  295.55  295.36  295.22  295.14  295.08  295.03
       294.94  294.80  294.60  294.32  293.93  293.47  293.02  292.58  292.16  291.78  291.46  291.26
   2   297.77  297.71  297.58  297.39  297.14  296.84  296.50  296.12  295.76  295.50  295.31  295.17  295.08  295.03  294.97
       294.89  294.75  294.55  294.27  293.88  293.43  292.99  292.55  292.14  291.76  291.45  291.24
   3   297.74  297.68  297.54  297.34  297.09  296.78  296.42  296.03  295.66  295.39  295.20  295.07  294.98  294.92  294.87
       294.78  294.64  294.45  294.18  293.79  293.36  292.92  292.50  292.10  291.73  291.42  291.22
   4   297.70  297.63  297.49  297.28  297.01  296.68  296.30  295.89  295.51  295.23  295.04  294.90  294.81  294.75  294.70
       294.61  294.48  294.29  294.02  293.65  293.24  292.83  292.42  292.03  291.67  291.37  291.18
   5   297.65  297.58  297.43  297.20  296.91  296.55  296.14  295.70  295.29  295.00  294.80  294.66  294.57  294.51  294.46
       294.37  294.24  294.06  293.80  293.46  293.08  292.70  292.33  291.96  291.61  291.32  291.13
   6   297.60  297.52  297.36  297.11  296.79  296.40  295.95  295.45  295.00  294.69  294.47  294.33  294.24  294.18  294.13
       294.04  293.91  293.74  293.51  293.22  292.89  292.55  292.21  291.87  291.54  291.26  291.07
   7   297.55  297.46  297.28  297.02  296.67  296.23  295.72  295.15  294.63  294.27  294.04  293.89  293.79  293.74  293.68
       293.60  293.48  293.33  293.14  292.91  292.66  292.38  292.08  291.77  291.47  291.20  291.02
   8   297.50  297.41  297.22  296.93  296.55  296.06  295.47  294.80  294.16  293.74  293.47  293.30  293.20  293.14  293.09
       293.01  292.91  292.79  292.68  292.56  292.41  292.21  291.97  291.69  291.40  291.15  290.98
   9   297.47  297.37  297.17  296.87  296.46  295.93  295.27  294.49  293.71  293.17  292.84  292.64  292.53  292.47  292.42
       292.35  292.28  292.23  292.23  292.25  292.21  292.08  291.88  291.63  291.36  291.12  290.95
  10   297.45  297.35  297.15  296.84  296.42  295.87  295.17  294.30  293.42  292.77  292.36  292.13  292.01  291.95  291.90
       291.84  291.80  291.83  291.93  292.07  292.10  292.02  291.84  291.60  291.34  291.10  290.93
  11   297.45  297.35  297.14  296.83  296.40  295.83  295.11  294.22  293.26  292.54  292.08  291.81  291.68  291.62  291.57
       291.53  291.52  291.60  291.78  291.98  292.05  291.98  291.82  291.59  291.33  291.09  290.92
  12   297.44  297.34  297.14  296.82  296.39  295.82  295.09  294.18  293.20  292.44  291.94  291.65  291.52  291.45  291.41
       291.37  291.38  291.50  291.71  291.94  292.03  291.97  291.81  291.58  291.33  291.09  290.92
  13   297.44  297.34  297.14  296.82  296.39  295.82  295.09  294.17  293.18  292.41  291.90  291.60  291.46  291.40  291.35
       291.32  291.34  291.47  291.69  291.93  292.03  291.97  291.81  291.58  291.33  291.09  290.92
  14   297.44  297.34  297.14  296.82  296.39  295.82  295.09  294.17  293.18  292.41  291.90  291.60  291.45  291.39  291.34
       291.31  291.34  291.46  291.69  291.93  292.03  291.97  291.81  291.58  291.33  291.09  290.92
  15   297.44  297.34  297.14  296.82  296.39  295.82  295.09  294.17  293.18  292.41  291.90  291.60  291.46  291.40  291.35
       291.32  291.34  291.47  291.69  291.93  292.03  291.97  291.81  291.58  291.33  291.09  290.92
  16   297.44  297.34  297.14  296.82  296.39  295.82  295.09  294.18  293.20  292.44  291.94  291.65  291.52  291.45  291.41
       291.37  291.38  291.50  291.71  291.94  292.03  291.97  291.81  291.58  291.33  291.09  290.92
  17   297.45  297.35  297.14  296.83  296.40  295.83  295.11  294.22  293.26  292.54  292.08  291.81  291.68  291.62  291.57
       291.53  291.52  291.60  291.78  291.98  292.05  291.98  291.82  291.59  291.33  291.09  290.92
  18   297.45  297.35  297.15  296.84  296.42  295.87  295.17  294.30  293.42  292.77  292.36  292.13  292.01  291.95  291.90
       291.84  291.80  291.83  291.93  292.07  292.10  292.02  291.84  291.60  291.34  291.10  290.93
  19   297.47  297.37  297.17  296.87  296.46  295.93  295.27  294.49  293.71  293.17  292.84  292.64  292.53  292.47  292.42
       292.35  292.28  292.23  292.23  292.25  292.21  292.08  291.88  291.63  291.36  291.12  290.95
  20   297.50  297.41  297.22  296.93  296.55  296.06  295.47  294.80  294.16  293.74  293.47  293.30  293.20  293.14  293.09
       293.01  292.91  292.79  292.68  292.56  292.41  292.21  291.97  291.69  291.41  291.15  290.98
  21   297.55  297.46  297.28  297.02  296.67  296.23  295.72  295.14  294.63  294.27  294.04  293.89  293.79  293.74  293.68
       293.60  293.48  293.33  293.14  292.91  292.66  292.38  292.08  291.77  291.47  291.20  291.02
  22   297.60  297.52  297.36  297.11  296.79  296.40  295.95  295.45  295.00  294.69  294.47  294.33  294.24  294.18  294.13
       294.04  293.91  293.74  293.51  293.22  292.89  292.55  292.21  291.87  291.54  291.26  291.08
  23   297.65  297.58  297.43  297.20  296.91  296.55  296.14  295.70  295.29  295.00  294.80  294.66  294.57  294.51  294.46
       294.37  294.24  294.06  293.80  293.46  293.08  292.70  292.33  291.96  291.61  291.32  291.13
  24   297.70  297.63  297.49  297.28  297.01  296.68  296.30  295.89  295.51  295.23  295.04  294.90  294.81  294.75  294.70
       294.61  294.48  294.29  294.02  293.65  293.24  292.83  292.42  292.03  291.67  291.37  291.18
  25   297.74  297.68  297.54  297.34  297.09  296.78  296.42  296.03  295.66  295.39  295.20  295.07  294.98  294.92  294.87
       294.78  294.64  294.45  294.18  293.79  293.36  292.93  292.50  292.10  291.73  291.42  291.22
  26   297.77  297.71  297.58  297.39  297.14  296.84  296.50  296.12  295.76  295.50  295.31  295.17  295.08  295.03  294.97
       294.89  294.75  294.55  294.27  293.88  293.43  292.99  292.55  292.14  291.76  291.45  291.24
  27   297.79  297.72  297.60  297.41  297.17  296.87  296.53  296.16  295.81  295.55  295.36  295.22  295.14  295.08  295.03
       294.94  294.80  294.60  294.32  293.93  293.47  293.02  292.58  292.16  291.78  291.46  291.26
1
              HEAD IN LAYER  3 AT END OF TIME STEP  1 IN STRESS PERIOD  1
  -----------------------------------------------------------------------

           1       2       3       4       5       6       7       8       9      10      11      12      13      14      15
          16      17      18      19      20      21      22      23      24      25      26      27
 ...........................................................................................................................
   1   297.60  297.54  297.41  297.23  296.99  296.69  296.36  295.99  295.65  295.39  295.21  295.08  294.99  294.94  294.89
       294.80  294.67  294.48  294.21  293.83  293.41  292.99  292.59  292.23  291.90  291.65  291.51
   2   297.59  297.52  297.39  297.20  296.96  296.66  296.32  295.95  295.60  295.34  295.16  295.02  294.94  294.89  294.83
       294.75  294.61  294.43  294.16  293.79  293.37  292.96  292.57  292.20  291.88  291.64  291.49
   3   297.56  297.49  297.36  297.16  296.90  296.59  296.24  295.85  295.49  295.23  295.05  294.91  294.83  294.78  294.72
       294.64  294.51  294.32  294.06  293.70  293.29  292.89  292.51  292.16  291.85  291.60  291.46
   4   297.51  297.44  297.30  297.09  296.82  296.50  296.12  295.71  295.33  295.06  294.87  294.74  294.65  294.60  294.55
       294.46  294.33  294.15  293.90  293.55  293.17  292.79  292.43  292.09  291.79  291.56  291.42
   5   297.46  297.39  297.24  297.01  296.72  296.36  295.96  295.51  295.11  294.82  294.63  294.49  294.40  294.35  294.30
       294.21  294.09  293.91  293.67  293.35  293.01  292.66  292.33  292.01  291.73  291.50  291.37
   6   297.41  297.33  297.16  296.92  296.60  296.21  295.75  295.25  294.80  294.49  294.28  294.14  294.05  294.00  293.95
       293.87  293.74  293.58  293.37  293.10  292.80  292.51  292.21  291.92  291.66  291.44  291.32
   7   297.35  297.27  297.09  296.83  296.47  296.03  295.51  294.93  294.40  294.04  293.81  293.66  293.57  293.51  293.46
       293.38  293.27  293.13  292.97  292.77  292.56  292.33  292.08  291.83  291.58  291.38  291.26
   8   297.31  297.21  297.02  296.74  296.35  295.85  295.25  294.55  293.89  293.43  293.14  292.97  292.87  292.82  292.77
       292.69  292.60  292.52  292.45  292.39  292.30  292.15  291.96  291.74  291.52  291.33  291.22
   9   297.27  297.18  296.98  296.67  296.26  295.72  295.04  294.20  293.34  292.70  292.29  292.06  291.95  291.89  291.84
       291.79  291.75  291.79  291.90  292.04  292.08  292.02  291.87  291.67  291.47  291.29  291.19
  10   297.26  297.16  296.95  296.64  296.21  295.64  294.92  293.98  292.94  292.07  291.48  291.13  290.98  290.92  290.87
       290.86  290.93  291.16  291.50  291.83  291.96  291.94  291.82  291.64  291.45  291.28  291.17
  11   297.25  297.15  296.94  296.63  296.19  295.61  294.86  293.87  292.71  291.65  290.84  290.32  290.10  290.03  290.00
       290.05  290.29  290.74  291.27  291.72  291.91  291.91  291.80  291.63  291.44  291.27  291.16
  12   297.25  297.15  296.94  296.62  296.18  295.60  294.84  293.83  292.61  291.44  290.45  289.74  289.41  289.31  289.31
       289.47  289.91  290.53  291.17  291.67  291.88  291.90  291.79  291.62  291.44  291.27  291.16
  13   297.25  297.15  296.94  296.62  296.18  295.59  294.83  293.81  292.58  291.37  290.32  289.50  289.05  288.91  288.95
       289.22  289.78  290.46  291.14  291.66  291.88  291.89  291.79  291.62  291.43  291.27  291.16
  14   297.25  297.15  296.94  296.62  296.18  295.59  294.83  293.81  292.57  291.36  290.29  289.45  288.97  288.77  288.86
       289.18  289.75  290.45  291.14  291.65  291.88  291.89  291.79  291.62  291.43  291.27  291.16
  15   297.25  297.15  296.94  296.62  296.18  295.59  294.83  293.81  292.58  291.37  290.32  289.50  289.05  288.91  288.95
       289.22  289.78  290.46  291.14  291.66  291.88  291.89  291.79  291.62  291.43  291.27  291.16
  16   297.25  297.15  296.94  296.62  296.18  295.60  294.84  293.83  292.61  291.44  290.45  289.74  289.41  289.31  289.31
       289.47  289.91  290.53  291.17  291.67  291.88  291.90  291.79  291.62  291.44  291.27  291.16
  17   297.25  297.15  296.94  296.63  296.19  295.61  294.86  293.87  292.71  291.65  290.84  290.32  290.10  290.03  290.00
       290.05  290.29  290.74  291.27  291.72  291.91  291.91  291.80  291.63  291.44  291.27  291.16
  18   297.26  297.16  296.95  296.64  296.21  295.64  294.92  293.98  292.94  292.07  291.48  291.13  290.98  290.92  290.87
       290.86  290.93  291.16  291.50  291.83  291.96  291.94  291.82  291.64  291.45  291.28  291.17
  19   297.27  297.18  296.98  296.67  296.26  295.72  295.04  294.20  293.34  292.70  292.29  292.06  291.95  291.89  291.84
       291.79  291.75  291.79  291.90  292.04  292.08  292.02  291.87  291.67  291.47  291.29  291.19
  20   297.31  297.21  297.02  296.74  296.35  295.85  295.25  294.55  293.89  293.43  293.14  292.97  292.87  292.82  292.77
       292.69  292.60  292.52  292.45  292.39  292.30  292.15  291.96  291.74  291.52  291.33  291.22
  21   297.35  297.27  297.09  296.82  296.47  296.03  295.51  294.93  294.40  294.04  293.81  293.66  293.57  293.51  293.46
       293.38  293.27  293.13  292.97  292.77  292.56  292.33  292.08  291.83  291.58  291.38  291.26
  22   297.41  297.33  297.16  296.92  296.60  296.21  295.75  295.25  294.80  294.49  294.28  294.14  294.05  294.00  293.95
       293.87  293.74  293.58  293.37  293.10  292.80  292.51  292.21  291.92  291.66  291.44  291.32
  23   297.46  297.39  297.24  297.01  296.72  296.36  295.96  295.51  295.11  294.82  294.63  294.49  294.40  294.35  294.30
       294.21  294.09  293.91  293.67  293.35  293.01  292.66  292.33  292.01  291.73  291.50  291.37
  24   297.51  297.44  297.30  297.09  296.82  296.50  296.12  295.71  295.33  295.06  294.87  294.74  294.65  294.60  294.55
       294.46  294.33  294.15  293.90  293.55  293.17  292.79  292.43  292.09  291.79  291.56  291.42
  25   297.56  297.49  297.36  297.16  296.90  296.59  296.24  295.85  295.49  295.23  295.05  294.91  294.83  294.78  294.72
       294.64  294.51  294.32  294.06  293.70  293.29  292.89  292.51  292.16  291.85  291.60  291.46
  26   297.59  297.52  297.39  297.20  296.96  296.66  296.32  295.95  295.60  295.34  295.16  295.02  294.94  294.89  294.83
       294.75  294.61  294.43  294.16  293.79  293.37  292.96  292.57  292.20  291.88  291.64  291.49
  27   297.60  297.54  297.41  297.23  296.98  296.69  296.36  295.99  295.65  295.39  295.21  295.08  294.99  294.94  294.89
       294.80  294.67  294.48  294.21  293.83  293.41  292.99  292.59  292.23  291.90  291.65  291.51
1
              HEAD IN LAYER  4 AT END OF TIME STEP  1 IN STRESS PERIOD  1
  -----------------------------------------------------------------------

           1       2       3       4       5       6       7       8       9      10      11      12      13      14      15
          16      17      18      19      20      21      22      23      24      25      26      27
 ...........................................................................................................................
   1   297.48  297.41  297.29  297.10  296.86  296.58  296.25  295.88  295.54  295.29  295.11  294.98  294.90  294.85  294.79
       294.71  294.58  294.40  294.14  293.78  293.37  292.98  292.61  292.27  291.99  291.77  291.66
   2   297.46  297.40  297.27  297.08  296.84  296.54  296.20  295.83  295.49  295.24  295.06  294.93  294.84  294.79  294.74
       294.66  294.53  294.35  294.09  293.73  293.33  292.94  292.58  292.25  291.97  291.76  291.64
   3   297.43  297.36  297.23  297.04  296.78  296.47  296.12  295.74  295.38  295.13  294.94  294.81  294.73  294.68  294.63
       294.54  294.41  294.24  293.98  293.63  293.25  292.87  292.52  292.20  291.93  291.72  291.61
   4   297.39  297.32  297.18  296.97  296.70  296.37  296.00  295.59  295.22  294.95  294.77  294.63  294.55  294.50  294.45
       294.36  294.24  294.06  293.82  293.49  293.12  292.77  292.44  292.14  291.87  291.68  291.57
   5   297.34  297.26  297.11  296.89  296.59  296.24  295.83  295.39  294.99  294.70  294.51  294.37  294.29  294.24  294.19
       294.11  293.98  293.81  293.58  293.28  292.96  292.64  292.34  292.05  291.81  291.62  291.52
   6   297.28  297.20  297.04  296.79  296.47  296.08  295.62  295.12  294.67  294.36  294.15  294.01  293.92  293.87  293.82
       293.74  293.62  293.47  293.26  293.01  292.74  292.48  292.21  291.96  291.73  291.56  291.46
   7   297.23  297.14  296.96  296.69  296.34  295.89  295.37  294.78  294.24  293.87  293.64  293.48  293.40  293.34  293.29
       293.21  293.11  292.98  292.84  292.67  292.49  292.30  292.08  291.86  291.66  291.50  291.41
   8   297.18  297.08  296.89  296.60  296.21  295.71  295.09  294.37  293.67  293.18  292.87  292.69  292.59  292.53  292.48
       292.42  292.34  292.29  292.27  292.26  292.22  292.11  291.95  291.77  291.59  291.44  291.36
   9   297.14  297.05  296.85  296.54  296.12  295.57  294.86  293.98  293.01  292.24  291.73  291.44  291.31  291.25  291.20
       291.17  291.20  291.35  291.61  291.87  291.99  291.97  291.86  291.71  291.54  291.41  291.33
  10   297.13  297.03  296.82  296.51  296.07  295.49  294.73  293.72  292.48  291.26  290.27  289.64  289.38  289.30  289.27
       289.37  289.75  290.37  291.07  291.62  291.86  291.89  291.81  291.67  291.52  291.39  291.31
  11   297.12  297.02  296.81  296.49  296.05  295.45  294.67  293.59  292.14  290.45  288.66  287.13  286.39  286.22  286.29
       286.86  288.13  289.56  290.74  291.48  291.79  291.86  291.79  291.66  291.51  291.38  291.30
  12   297.12  297.02  296.81  296.49  296.04  295.44  294.64  293.53  291.97  289.94  287.25  283.94  281.48  280.76  281.38
       283.67  286.72  289.05  290.57  291.42  291.77  291.84  291.78  291.65  291.51  291.38  291.30
  13   297.12  297.02  296.81  296.49  296.04  295.44  294.63  293.51  291.92  289.76  286.60  281.56  275.21  270.92  275.11
       281.29  286.07  288.87  290.52  291.41  291.76  291.84  291.78  291.65  291.51  291.38  291.30
  14   297.12  297.02  296.81  296.49  296.04  295.44  294.63  293.51  291.91  289.73  286.48  280.90  270.97  251.22  270.87
       280.63  285.95  288.84  290.51  291.40  291.76  291.84  291.78  291.65  291.51  291.38  291.30
  15   297.12  297.02  296.81  296.49  296.04  295.44  294.63  293.51  291.92  289.76  286.60  281.56  275.21  270.92  275.11
       281.29  286.07  288.87  290.52  291.41  291.76  291.84  291.78  291.65  291.51  291.38  291.30
  16   297.12  297.02  296.81  296.49  296.04  295.44  294.64  293.53  291.97  289.94  287.25  283.94  281.48  280.76  281.38
       283.67  286.72  289.05  290.57  291.42  291.77  291.84  291.78  291.65  291.51  291.38  291.30
  17   297.12  297.02  296.81  296.49  296.05  295.45  294.67  293.59  292.14  290.45  288.66  287.13  286.39  286.22  286.28
       286.86  288.13  289.56  290.74  291.48  291.79  291.86  291.79  291.66  291.51  291.38  291.30
  18   297.13  297.03  296.82  296.51  296.07  295.49  294.73  293.72  292.48  291.26  290.27  289.64  289.38  289.30  289.27
       289.37  289.75  290.37  291.07  291.62  291.86  291.89  291.81  291.67  291.52  291.39  291.31
  19   297.14  297.05  296.85  296.54  296.12  295.57  294.86  293.98  293.01  292.24  291.73  291.44  291.31  291.25  291.20
       291.17  291.20  291.35  291.61  291.87  291.99  291.97  291.86  291.71  291.54  291.41  291.33
  20   297.18  297.08  296.89  296.60  296.21  295.71  295.09  294.37  293.67  293.18  292.87  292.69  292.59  292.53  292.48
       292.42  292.34  292.29  292.27  292.26  292.22  292.11  291.95  291.77  291.59  291.44  291.36
  21   297.23  297.14  296.96  296.69  296.34  295.89  295.37  294.78  294.24  293.87  293.64  293.48  293.39  293.34  293.29
       293.21  293.11  292.98  292.84  292.67  292.49  292.30  292.08  291.86  291.66  291.50  291.41
  22   297.28  297.20  297.04  296.79  296.47  296.08  295.62  295.12  294.67  294.36  294.15  294.01  293.92  293.87  293.82
       293.74  293.62  293.47  293.26  293.01  292.74  292.48  292.21  291.96  291.73  291.56  291.46
  23   297.34  297.26  297.11  296.89  296.59  296.24  295.83  295.39  294.99  294.70  294.51  294.37  294.29  294.24  294.19
       294.11  293.98  293.81  293.58  293.28  292.96  292.64  292.34  292.05  291.81  291.62  291.52
  24   297.39  297.32  297.18  296.97  296.70  296.37  296.00  295.59  295.22  294.95  294.77  294.63  294.55  294.50  294.45
       294.36  294.24  294.06  293.82  293.49  293.12  292.77  292.44  292.14  291.87  291.68  291.57
  25   297.43  297.36  297.23  297.04  296.78  296.47  296.12  295.74  295.38  295.13  294.94  294.81  294.73  294.68  294.63
       294.54  294.41  294.24  293.98  293.63  293.25  292.87  292.52  292.20  291.93  291.72  291.61
  26   297.46  297.40  297.27  297.08  296.84  296.54  296.20  295.83  295.49  295.24  295.06  294.93  294.84  294.79  294.74
       294.66  294.53  294.35  294.09  293.73  293.33  292.94  292.58  292.25  291.97  291.76  291.64
  27   297.48  297.41  297.29  297.10  296.86  296.58  296.24  295.88  295.54  295.29  295.11  294.98  294.90  294.85  294.79
       294.71  294.58  294.40  294.14  293.78  293.37  292.98  292.61  292.27  291.99  291.77  291.66
1
              HEAD IN LAYER  5 AT END OF TIME STEP  1 IN STRESS PERIOD  1
  -----------------------------------------------------------------------

           1       2       3       4       5       6       7       8       9      10      11      12      13      14      15
          16      17      18      19      20      21      22      23      24      25      26      27
 ...........................................................................................................................
   1   297.42  297.35  297.23  297.04  296.80  296.52  296.19  295.82  295.49  295.24  295.06  294.93  294.85  294.80  294.75
       294.67  294.54  294.36  294.10  293.75  293.35  292.97  292.61  292.29  292.03  291.83  291.73
   2   297.40  297.34  297.21  297.02  296.78  296.48  296.15  295.78  295.44  295.18  295.01  294.88  294.80  294.74  294.69
       294.61  294.48  294.30  294.05  293.70  293.31  292.93  292.58  292.27  292.01  291.81  291.71
   3   297.37  297.30  297.17  296.97  296.72  296.41  296.06  295.68  295.33  295.07  294.89  294.76  294.68  294.63  294.58
       294.50  294.37  294.19  293.94  293.60  293.23  292.87  292.53  292.22  291.97  291.78  291.68
   4   297.33  297.26  297.12  296.91  296.64  296.31  295.94  295.53  295.16  294.90  294.71  294.58  294.50  294.45  294.40
       294.32  294.19  294.02  293.78  293.45  293.10  292.76  292.45  292.16  291.91  291.73  291.64
   5   297.28  297.20  297.05  296.82  296.53  296.18  295.77  295.32  294.92  294.64  294.45  294.32  294.23  294.18  294.13
       294.05  293.93  293.76  293.54  293.25  292.93  292.63  292.34  292.07  291.85  291.68  291.59
   6   297.22  297.14  296.97  296.73  296.41  296.01  295.55  295.05  294.60  294.29  294.08  293.94  293.86  293.80  293.75
       293.67  293.56  293.41  293.21  292.97  292.72  292.46  292.22  291.98  291.77  291.62  291.53
   7   297.16  297.07  296.90  296.63  296.27  295.83  295.30  294.70  294.16  293.79  293.55  293.40  293.32  293.26  293.21
       293.14  293.03  292.91  292.77  292.62  292.46  292.28  292.08  291.88  291.70  291.55  291.47
   8   297.11  297.02  296.83  296.54  296.14  295.64  295.01  294.28  293.57  293.08  292.78  292.60  292.51  292.45  292.40
       292.34  292.26  292.20  292.19  292.20  292.18  292.09  291.95  291.79  291.63  291.50  291.43
   9   297.08  296.98  296.78  296.47  296.05  295.49  294.78  293.88  292.92  292.20  291.75  291.50  291.38  291.32  291.27
       291.23  291.22  291.32  291.53  291.80  291.94  291.94  291.86  291.72  291.58  291.46  291.39
  10   297.06  296.96  296.76  296.44  296.00  295.41  294.64  293.62  292.43  291.42  290.73  290.35  290.18  290.12  290.08
       290.08  290.21  290.54  291.04  291.54  291.80  291.86  291.81  291.69  291.56  291.44  291.38
  11   297.06  296.95  296.75  296.42  295.98  295.38  294.58  293.49  292.15  290.90  289.95  289.37  289.13  289.06  289.03
       289.11  289.43  290.02  290.76  291.41  291.74  291.83  291.79  291.68  291.55  291.43  291.37
  12   297.05  296.95  296.74  296.42  295.97  295.36  294.55  293.44  292.02  290.64  289.50  288.70  288.34  288.24  288.24
       288.44  288.98  289.76  290.64  291.36  291.71  291.81  291.78  291.67  291.54  291.43  291.37
  13   297.05  296.95  296.74  296.42  295.96  295.36  294.54  293.42  291.99  290.56  289.34  288.43  287.95  287.81  287.85
       288.16  288.82  289.68  290.60  291.34  291.70  291.81  291.77  291.67  291.54  291.43  291.37
  14   297.05  296.95  296.74  296.42  295.96  295.36  294.54  293.42  291.98  290.55  289.31  288.38  287.86  287.66  287.76
       288.11  288.79  289.67  290.59  291.34  291.70  291.81  291.77  291.67  291.54  291.43  291.37
  15   297.05  296.95  296.74  296.42  295.96  295.36  294.54  293.42  291.99  290.56  289.34  288.43  287.95  287.81  287.85
       288.16  288.82  289.68  290.60  291.34  291.70  291.81  291.77  291.67  291.54  291.43  291.37
  16   297.05  296.95  296.74  296.42  295.97  295.36  294.55  293.44  292.02  290.64  289.50  288.70  288.34  288.24  288.24
       288.44  288.98  289.76  290.64  291.36  291.71  291.81  291.78  291.67  291.54  291.43  291.37
  17   297.06  296.95  296.75  296.42  295.98  295.38  294.58  293.49  292.15  290.90  289.95  289.37  289.13  289.06  289.03
       289.11  289.43  290.02  290.76  291.41  291.74  291.83  291.79  291.68  291.55  291.43  291.37
  18   297.06  296.96  296.76  296.44  296.00  295.41  294.64  293.62  292.43  291.42  290.73  290.35  290.18  290.12  290.08
       290.08  290.21  290.54  291.04  291.54  291.80  291.86  291.81  291.69  291.56  291.44  291.38
  19   297.08  296.98  296.78  296.47  296.05  295.49  294.78  293.88  292.92  292.20  291.75  291.50  291.38  291.32  291.27
       291.23  291.22  291.32  291.53  291.80  291.94  291.94  291.86  291.72  291.58  291.46  291.39
  20   297.11  297.02  296.83  296.54  296.14  295.64  295.01  294.28  293.57  293.08  292.78  292.60  292.51  292.45  292.40
       292.34  292.26  292.20  292.19  292.20  292.18  292.09  291.95  291.79  291.63  291.50  291.43
  21   297.16  297.07  296.90  296.63  296.27  295.83  295.30  294.70  294.16  293.79  293.55  293.40  293.32  293.26  293.21
       293.14  293.03  292.91  292.77  292.62  292.46  292.28  292.08  291.88  291.70  291.55  291.47
  22   297.22  297.14  296.97  296.73  296.41  296.01  295.55  295.05  294.60  294.29  294.08  293.94  293.86  293.80  293.75
       293.67  293.56  293.41  293.21  292.97  292.72  292.46  292.22  291.98  291.77  291.62  291.53
  23   297.27  297.20  297.05  296.82  296.53  296.18  295.77  295.32  294.92  294.64  294.45  294.32  294.23  294.18  294.13
       294.05  293.93  293.76  293.54  293.25  292.93  292.63  292.34  292.07  291.85  291.68  291.59
  24   297.33  297.26  297.12  296.91  296.64  296.31  295.94  295.53  295.16  294.90  294.71  294.58  294.50  294.45  294.40
       294.32  294.19  294.02  293.78  293.45  293.10  292.76  292.45  292.16  291.91  291.73  291.64
  25   297.37  297.30  297.17  296.97  296.72  296.41  296.06  295.68  295.33  295.07  294.89  294.76  294.68  294.63  294.58
       294.50  294.37  294.19  293.94  293.60  293.23  292.87  292.53  292.22  291.97  291.78  291.68
  26   297.40  297.34  297.21  297.02  296.78  296.48  296.15  295.78  295.44  295.18  295.01  294.88  294.80  294.74  294.69
       294.61  294.48  294.30  294.05  293.70  293.31  292.93  292.58  292.27  292.01  291.81  291.71
  27   297.42  297.35  297.23  297.04  296.80  296.52  296.19  295.82  295.49  295.24  295.06  294.93  294.85  294.80  294.75
       294.67  294.54  294.36  294.10  293.75  293.35  292.97  292.61  292.29  292.03  291.83  291.73

 HEAD WILL BE SAVED ON UNIT  30 AT END OF TIME STEP  1, STRESS PERIOD  1
1
  VOLUMETRIC BUDGET FOR ENTIRE MODEL AT END OF TIME STEP  1 IN STRESS PERIOD  1
  -----------------------------------------------------------------------------

     CUMULATIVE VOLUMES      L**3       RATES FOR THIS TIME STEP      L**3/T
     ------------------                 ------------------------

           IN:                                      IN:
           ---                                      ---
             STORAGE =           0.0000               STORAGE =           0.0000
       CONSTANT HEAD =           0.0000         CONSTANT HEAD =           0.0000
               WELLS =           0.0000                 WELLS =           0.0000
       RIVER LEAKAGE =           0.0000         RIVER LEAKAGE =           0.0000
            RECHARGE =      292336.1880              RECHARGE =      292336.1880

            TOTAL IN =      292336.1880              TOTAL IN =      292336.1880

          OUT:                                     OUT:
          ----                                     ----
             STORAGE =           0.0000               STORAGE =           0.0000
       CONSTANT HEAD =           0.0000         CONSTANT HEAD =           0.0000
               WELLS =       80000.0000                 WELLS =       80000.0000
       RIVER LEAKAGE =      212296.0470         RIVER LEAKAGE =      212296.0470
            RECHARGE =           0.0000              RECHARGE =           0.0000

           TOTAL OUT =      292296.0630             TOTAL OUT =      292296.0630

            IN - OUT =          40.1250              IN - OUT =          40.1250

 PERCENT DISCREPANCY =           0.01     PERCENT DISCREPANCY =           0.01






          TIME SUMMARY AT END OF TIME STEP  1 IN STRESS PERIOD  1
                          TIME STEP LENGTH =    1.00000    
                        STRESS PERIOD TIME =    1.00000    
                     TOTAL SIMULATION TIME =    1.00000    
1
