                                  MODFLOW-2005     
      U.S. GEOLOGICAL SURVEY MODULAR FINITE-DIFFERENCE GROUND-WATER FLOW MODEL
                            VERSION 1.5.00 4/28/2008

 LIST FILE: DEMO-S.LST
                         UNIT    1

 OPENING DEMO-S.DIS
 FILE TYPE:DIS   UNIT    9   STATUS:OLD    
 FORMAT:FORMATTED              ACCESS:SEQUENTIAL          

 OPENING DEMO-S.BA6
 FILE TYPE:BAS6   UNIT    2   STATUS:OLD    
 FORMAT:FORMATTED              ACCESS:SEQUENTIAL          

 OPENING DEMO-S.BC6
 FILE TYPE:BCF6   UNIT   11   STATUS:OLD    
 FORMAT:FORMATTED              ACCESS:SEQUENTIAL          

 OPENING DEMO-S.OC
 FILE TYPE:OC   UNIT   12   STATUS:OLD    
 FORMAT:FORMATTED              ACCESS:SEQUENTIAL          

 OPENING DEMO-S.RCH
 FILE TYPE:RCH   UNIT   13   STATUS:OLD    
 FORMAT:FORMATTED              ACCESS:SEQUENTIAL          

 OPENING DEMO-S.WEL
 FILE TYPE:WEL   UNIT   14   STATUS:OLD    
 FORMAT:FORMATTED              ACCESS:SEQUENTIAL          
#SIP                  15 DEMO-S.SIP                                                                                                                                                                                                                                                                         

 OPENING DEMO-S.PCG
 FILE TYPE:PCG   UNIT   15   STATUS:OLD    
 FORMAT:FORMATTED              ACCESS:SEQUENTIAL          

 OPENING DEMO-S.RIV
 FILE TYPE:RIV   UNIT   16   STATUS:OLD    
 FORMAT:FORMATTED              ACCESS:SEQUENTIAL          

 OPENING DEMO-S.HED
 FILE TYPE:DATA(BINARY)   UNIT   30   STATUS:UNKNOWN
 FORMAT:BINARY                 ACCESS:SEQUENTIAL          

 OPENING DEMO-S.BUD
 FILE TYPE:DATA(BINARY)   UNIT   32   STATUS:UNKNOWN
 FORMAT:BINARY                 ACCESS:SEQUENTIAL          

 BAS -- BASIC PACKAGE, VERSION 7, 5/2/2005 INPUT READ FROM UNIT    2

 DISCRETIZATION INPUT DATA READ FROM UNIT    9
    5 LAYERS        27 ROWS        27 COLUMNS
    1 STRESS PERIOD(S) IN SIMULATION
 MODEL TIME UNIT IS UNDEFINED
 MODEL LENGTH UNIT IS UNDEFINED
  Confining bed flag for each layer:
   1   0   0   0   0



                               DELR
 READING ON UNIT    9 WITH FORMAT:            (10F10.0)
   400.00       400.00       400.00       400.00       400.00       400.00       400.00       400.00       300.00       200.00    
   150.00       100.00       60.000       40.000       60.000       100.00       150.00       200.00       300.00       400.00    
   400.00       400.00       400.00       400.00       400.00       400.00       400.00    



                               DELC
 READING ON UNIT    9 WITH FORMAT:            (10F10.0)
   400.00       400.00       400.00       400.00       400.00       400.00       400.00       400.00       300.00       200.00    
   150.00       100.00       60.000       40.000       60.000       100.00       150.00       200.00       300.00       400.00    
   400.00       400.00       400.00       400.00       400.00       400.00       400.00    

 TOP ELEVATION OF LAYER 1 =   500.000    

   MODEL LAYER BOTTOM EL. =   220.000     FOR LAYER   1

 BOT. EL. OF QUASI-3D BED =   200.000     FOR LAYER   1

   MODEL LAYER BOTTOM EL. =   150.000     FOR LAYER   2

   MODEL LAYER BOTTOM EL. =   100.000     FOR LAYER   3

   MODEL LAYER BOTTOM EL. =   50.0000     FOR LAYER   4

   MODEL LAYER BOTTOM EL. =   0.00000     FOR LAYER   5


 STRESS PERIOD     LENGTH       TIME STEPS     MULTIPLIER FOR DELT    SS FLAG
 ----------------------------------------------------------------------------
        1         1.000000          1                    1.000         SS

 STEADY-STATE SIMULATION



 
 #MODPATH SAMPLE PROBLEM                                                         
 #                                                                               

           BOUNDARY ARRAY =              1 FOR LAYER   1

           BOUNDARY ARRAY =              1 FOR LAYER   2

           BOUNDARY ARRAY =              1 FOR LAYER   3

           BOUNDARY ARRAY =              1 FOR LAYER   4

           BOUNDARY ARRAY =              1 FOR LAYER   5

 AQUIFER HEAD WILL BE SET TO  999.90     AT ALL NO-FLOW NODES (IBOUND=0).

             INITIAL HEAD =   280.000     FOR LAYER   1

             INITIAL HEAD =   280.000     FOR LAYER   2

             INITIAL HEAD =   280.000     FOR LAYER   3

             INITIAL HEAD =   280.000     FOR LAYER   4

             INITIAL HEAD =   280.000     FOR LAYER   5

 OUTPUT CONTROL IS SPECIFIED ONLY AT TIME STEPS FOR WHICH OUTPUT IS DESIRED
 COMPACT CELL-BY-CELL BUDGET FILES WILL BE WRITTEN
 AUXILIARY DATA WILL BE SAVED IN CELL-BY-CELL BUDGET FILES
 HEAD PRINT FORMAT CODE IS   4    DRAWDOWN PRINT FORMAT CODE IS   4
 HEADS WILL BE SAVED ON UNIT   30    DRAWDOWNS WILL BE SAVED ON UNIT    0

 BCF -- BLOCK-CENTERED FLOW PACKAGE, VERSION 7, 5/2/2005
         INPUT READ FROM UNIT 11
 STEADY-STATE SIMULATION
 CELL-BY-CELL FLOWS WILL BE SAVED ON UNIT 32
 HEAD AT CELLS THAT CONVERT TO DRY=  0.10000E+31
 WETTING CAPABILITY IS NOT ACTIVE
      LAYER  LAYER-TYPE CODE     INTERBLOCK T
      --------------------------------------------
         1            1          0 -- HARMONIC    
         2            0          0 -- HARMONIC    
         3            0          0 -- HARMONIC    
         4            0          0 -- HARMONIC    
         5            0          0 -- HARMONIC    

 COLUMN TO ROW ANISOTROPY =   1.00000    

    HYD. COND. ALONG ROWS =   50.0000     FOR LAYER   1

 VERT HYD COND /THICKNESS =  5.000000E-04 FOR LAYER   1

     TRANSMIS. ALONG ROWS =   1250.00     FOR LAYER   2

 VERT HYD COND /THICKNESS =  1.000000E-02 FOR LAYER   2

     TRANSMIS. ALONG ROWS =   1250.00     FOR LAYER   3

 VERT HYD COND /THICKNESS =  1.000000E-02 FOR LAYER   3

     TRANSMIS. ALONG ROWS =   1250.00     FOR LAYER   4

 VERT HYD COND /THICKNESS =  1.000000E-02 FOR LAYER   4

     TRANSMIS. ALONG ROWS =   1250.00     FOR LAYER   5

 WEL -- WELL PACKAGE, VERSION 7, 5/2/2005 INPUT READ FROM UNIT   14
 No named parameters
 MAXIMUM OF      1 ACTIVE WELLS AT ONE TIME
 CELL-BY-CELL FLOWS WILL BE SAVED ON UNIT   32
 AUXILIARY WELL VARIABLE: IFACE           


     0 Well parameters

 RIV -- RIVER PACKAGE, VERSION 7, 5/2/2005 INPUT READ FROM UNIT   16
 No named parameters
 MAXIMUM OF     27 ACTIVE RIVER REACHES AT ONE TIME
 CELL-BY-CELL FLOWS WILL BE SAVED ON UNIT   32
 AUXILIARY RIVER VARIABLE: IFACE           


     0 River parameters

 RCH -- RECHARGE PACKAGE, VERSION 7, 5/2/2005 INPUT READ FROM UNIT   13
 No named parameters
 OPTION 1 -- RECHARGE TO TOP LAYER
 CELL-BY-CELL FLOWS WILL BE SAVED ON UNIT   32


     0 Recharge parameters

 PCG -- CONJUGATE-GRADIENT SOLUTION PACKAGE, VERSION 7, 5/2/2005
 MAXIMUM OF     15 CALLS OF SOLUTION ROUTINE
 MAXIMUM OF     20 INTERNAL ITERATIONS PER CALL TO SOLUTION ROUTINE
 MATRIX PRECONDITIONING TYPE :    1



                                    SOLUTION BY THE CONJUGATE-GRADIENT METHOD
                                   -------------------------------------------
                    MAXIMUM NUMBER OF CALLS TO PCG ROUTINE =       15
                        MAXIMUM ITERATIONS PER CALL TO PCG =       20
                               MATRIX PRECONDITIONING TYPE =        1
        RELAXATION FACTOR (ONLY USED WITH PRECOND. TYPE 1) =    0.10000E+01
 PARAMETER OF POLYNOMIAL PRECOND. = 2 (2) OR IS CALCULATED :        2
                         HEAD CHANGE CRITERION FOR CLOSURE =    0.10000E-03
                     RESIDUAL CHANGE CRITERION FOR CLOSURE =    0.10000E+04
            PCG HEAD AND RESIDUAL CHANGE PRINTOUT INTERVAL =        1
     PRINTING FROM SOLVER IS LIMITED(1) OR SUPPRESSED (>1) =        0
                                         DAMPING PARAMETER =    0.10000E+01
1
                            STRESS PERIOD NO.    1, LENGTH =   1.000000    
                            -----------------------------------------------

                              NUMBER OF TIME STEPS =     1

                               MULTIPLIER FOR DELT =     1.000

                            INITIAL TIME STEP SIZE =   1.000000    

 WELL NO.  LAYER   ROW   COL   STRESS RATE         IFACE           
 ------------------------------------------------------------------
      1      4     14     14     -0.8000E+05       0.000    

      1 WELL 

 REACH NO.  LAYER   ROW   COL     STAGE      CONDUCTANCE     BOTTOM EL.         IFACE           
 -----------------------------------------------------------------------------------------------
      1      1      1     27       280.0           3200.           275.0           6.000    
      2      1      2     27       280.0           3200.           275.0           6.000    
      3      1      3     27       280.0           3200.           275.0           6.000    
      4      1      4     27       280.0           3200.           275.0           6.000    
      5      1      5     27       280.0           3200.           275.0           6.000    
      6      1      6     27       280.0           3200.           275.0           6.000    
      7      1      7     27       280.0           3200.           275.0           6.000    
      8      1      8     27       280.0           3200.           275.0           6.000    
      9      1      9     27       280.0           2400.           275.0           6.000    
     10      1     10     27       280.0           1600.           275.0           6.000    
     11      1     11     27       280.0           1200.           275.0           6.000    
     12      1     12     27       280.0           800.0           275.0           6.000    
     13      1     13     27       280.0           480.0           275.0           6.000    
     14      1     14     27       280.0           320.0           275.0           6.000    
     15      1     15     27       280.0           480.0           275.0           6.000    
     16      1     16     27       280.0           800.0           275.0           6.000    
     17      1     17     27       280.0           1200.           275.0           6.000    
     18      1     18     27       280.0           1600.           275.0           6.000    
     19      1     19     27       280.0           2400.           275.0           6.000    
     20      1     20     27       280.0           3200.           275.0           6.000    
     21      1     21     27       280.0           3200.           275.0           6.000    
     22      1     22     27       280.0           3200.           275.0           6.000    
     23      1     23     27       280.0           3200.           275.0           6.000    
     24      1     24     27       280.0           3200.           275.0           6.000    
     25      1     25     27       280.0           3200.           275.0           6.000    
     26      1     26     27       280.0           3200.           275.0           6.000    
     27      1     27     27       280.0           3200.           275.0           6.000    

     27 RIVER REACHES

                 RECHARGE =  4.500000E-03
 
 SOLVING FOR HEAD 


     6 CALLS TO PCG ROUTINE FOR TIME STEP   1 IN STRESS PERIOD    1
    79 TOTAL ITERATIONS

 MAXIMUM HEAD CHANGE FOR EACH ITERATION (1 INDICATES THE FIRST INNER ITERATION):

    HEAD CHANGE    HEAD CHANGE    HEAD CHANGE    HEAD CHANGE    HEAD CHANGE 
   LAYER,ROW,COL  LAYER,ROW,COL  LAYER,ROW,COL  LAYER,ROW,COL  LAYER,ROW,COL
 ---------------------------------------------------------------------------
  1  -10.07      0   9.717      0   6.065      0   7.687      0   3.324    
   (  4, 14, 14)  (  5, 27,  1)  (  5,  6,  7)  (  5,  1, 11)  (  5,  1, 25)
  0   5.225      0   3.886      0   2.024      0  -1.326      0   1.041    
   (  4, 11, 11)  (  4, 12, 12)  (  1,  1, 22)  (  4, 12, 16)  (  5, 27,  1)
  0   1.047      0  0.7816      0 -0.7200      0  0.6124      0  0.3323    
   (  5,  4,  9)  (  5, 23,  2)  (  5, 27, 20)  (  4, 14, 11)  (  5,  1, 27)
  0  0.2674      0 -0.1184      0  0.1638      0  0.8684E-01  0  0.7917E-01
   (  4, 14, 12)  (  5, 11,  8)  (  4, 14, 14)  (  5,  4,  4)  (  2, 25,  1)
  1  -1.102      0 -0.6419      0 -0.9515      0 -0.5041      0 -0.4386    
   (  5, 27,  1)  (  1, 27,  6)  (  5, 27,  1)  (  5, 11,  7)  (  1,  1,  9)
  0 -0.3956      0 -0.2846      0 -0.1682      0 -0.1112      0  0.8801E-01
   (  1,  1, 10)  (  1,  1, 11)  (  1,  1, 22)  (  1,  1, 23)  (  5,  2, 26)
  0 -0.8133E-01  0  0.7179E-01  0 -0.5540E-01  0  0.3565E-01  0 -0.2299E-01
   (  2,  1,  5)  (  5, 27, 19)  (  5, 27,  1)  (  5, 27,  3)  (  3,  1,  5)
  0 -0.1621E-01  0  0.9569E-02  0  0.6547E-02  0 -0.8852E-02  0 -0.3936E-02
   (  2,  4,  1)  (  5, 22, 27)  (  5, 24, 21)  (  3,  4,  1)  (  1, 10,  4)
  1  0.9695E-01  0 -0.1837E-01  0  0.6301E-01  0  0.3462E-01  0  0.3069E-01
   (  1, 27,  3)  (  5, 23,  2)  (  5, 27,  1)  (  5, 10,  7)  (  1,  1,  7)
  0  0.2764E-01  0  0.2228E-01  0  0.9960E-02  0  0.5897E-02  0 -0.6743E-02
   (  1,  1,  9)  (  1,  1, 10)  (  1,  1, 12)  (  1,  3,  1)  (  5,  2, 26)
  0  0.5608E-02  0 -0.5764E-02  0  0.4846E-02  0  0.2080E-02  0  0.1831E-02
   (  2,  1,  5)  (  5, 27, 19)  (  5, 27,  1)  (  1,  9, 10)  (  3,  1,  5)
  0  0.1391E-02  0  0.6241E-03  0 -0.4847E-03  0  0.5250E-03  0 -0.3107E-03
   (  2,  4,  1)  (  1, 10,  8)  (  5, 19,  9)  (  3,  4,  1)  (  1, 25,  2)
  1 -0.3990E-02  0 -0.1964E-02  0 -0.2765E-02  0 -0.1888E-02  0 -0.1593E-02
   (  1, 27,  1)  (  1, 27,  5)  (  5, 27,  1)  (  5, 11,  7)  (  1,  1,  4)
  0 -0.1274E-02  0 -0.1163E-02  0 -0.4783E-03  0 -0.2587E-03  0  0.3725E-03
   (  1,  1,  8)  (  1,  1, 10)  (  5,  2, 27)  (  1,  3,  1)  (  5,  1, 26)
  0 -0.3140E-03  0 -0.2475E-03  0 -0.1202E-03  0 -0.1737E-03  0  0.1246E-03
   (  2,  1,  5)  (  2,  4,  1)  (  1, 10, 11)  (  4, 27,  1)  (  5, 26,  7)
  0 -0.7592E-04  1  0.1923E-03  0  0.6494E-04  1  0.7560E-04
   (  3,  4,  1)  (  1, 27,  2)  (  1, 27,  4)  (  5, 27,  2)

 MAXIMUM RESIDUAL FOR EACH ITERATION (1 INDICATES THE FIRST INNER ITERATION):

    RESIDUAL       RESIDUAL       RESIDUAL       RESIDUAL       RESIDUAL    
   LAYER,ROW,COL  LAYER,ROW,COL  LAYER,ROW,COL  LAYER,ROW,COL  LAYER,ROW,COL
 ---------------------------------------------------------------------------
  1  0.7495E+05  0  0.6882E+05  0  0.5982E+05  0  0.4581E+05  0  0.3720E+05
   (  4, 14, 14)  (  4, 14, 14)  (  4, 14, 14)  (  4, 14, 14)  (  4, 14, 14)
  0  0.2197E+05  0  0.1260E+05  0   7488.      0   7080.      0   6144.    
   (  4, 14, 14)  (  4, 14, 14)  (  4, 13, 15)  (  4, 13, 15)  (  4, 13, 15)
  0   5075.      0   4689.      0   3251.      0   1863.      0  -981.1    
   (  4, 13, 15)  (  4, 13, 15)  (  4, 13, 15)  (  4, 13, 15)  (  4, 14, 14)
  0  -631.7      0  -560.3      0  -460.7      0  -335.0      0  -308.2    
   (  4, 14, 14)  (  1,  2, 24)  (  1,  2, 24)  (  1,  2, 25)  (  1,  2, 25)
  1  -794.3      0  -764.4      0  -793.5      0  -757.8      0   690.7    
   (  1,  4, 27)  (  1,  1, 27)  (  1, 27, 26)  (  1, 27, 26)  (  1,  1, 21)
  0   714.8      0   682.8      0   569.4      0   454.4      0   338.8    
   (  1,  1, 22)  (  1,  1, 23)  (  1,  1, 24)  (  1,  1, 25)  (  1,  1, 25)
  0   261.2      0  -197.7      0  -187.1      0  -132.2      0  -98.64    
   (  1,  1, 26)  (  1, 26, 27)  (  1, 26, 27)  (  1, 26, 27)  (  1,  2, 26)
  0   72.70      0   55.32      0   49.51      0   34.39      0   24.14    
   (  1,  2, 23)  (  1,  2, 24)  (  1,  2, 24)  (  1,  2, 24)  (  1,  2, 25)
  1   43.45      0   50.28      0   48.35      0  -46.55      0  -43.09    
   (  1, 27, 24)  (  1, 27, 24)  (  1, 27, 24)  (  1,  1,  8)  (  1,  1,  9)
  0  -47.19      0  -43.93      0  -34.67      0  -26.08      0  -17.73    
   (  1,  1, 21)  (  1,  1, 22)  (  1,  1, 23)  (  1,  1, 23)  (  1,  1, 24)
  0   14.32      0   10.57      0   9.190      0   6.133      0   4.566    
   (  1, 26, 27)  (  1, 26, 27)  (  1, 26, 27)  (  1,  2,  9)  (  1,  2,  9)
  0  -3.307      0  -2.520      0  -2.178      0  -1.491      0 -0.8553    
   (  1,  2, 23)  (  1,  2, 23)  (  1,  2, 23)  (  1,  2, 24)  (  1,  2, 25)
  1  -1.670      0  -2.425      0  -2.206      0   2.723      0   2.686    
   (  1, 27, 23)  (  1, 27, 23)  (  1, 27, 22)  (  1,  1,  8)  (  1,  1,  9)
  0   2.185      0   2.086      0   1.576      0   1.072      0  0.7760    
   (  1,  1,  9)  (  1,  1, 21)  (  1,  1, 21)  (  1,  1, 22)  (  1, 27, 26)
  0  0.4953      0 -0.3728      0  0.3132      0  0.2505      0 -0.2257    
   (  1, 27, 26)  (  1,  2, 24)  (  1, 27, 21)  (  1, 27, 21)  (  1,  2,  9)
  0  0.1350      1  0.1616      0  0.1861      1  0.1583    
   (  1,  9,  1)  (  1, 27, 20)  (  1, 27, 21)  (  1, 27, 20)



 OUTPUT CONTROL FOR STRESS PERIOD    1   TIME STEP   1
    PRINT HEAD FOR ALL LAYERS
    SAVE HEAD FOR ALL LAYERS
    SAVE BUDGET
 UBDSV2 SAVING "   CONSTANT HEAD" ON UNIT  32 AT TIME STEP  1, STRESS PERIOD   1
 UBDSV1 SAVING "FLOW RIGHT FACE " ON UNIT  32 AT TIME STEP  1, STRESS PERIOD   1
 UBDSV1 SAVING "FLOW FRONT FACE " ON UNIT  32 AT TIME STEP  1, STRESS PERIOD   1
 UBDSV1 SAVING "FLOW LOWER FACE " ON UNIT  32 AT TIME STEP  1, STRESS PERIOD   1
 UBDSV4 SAVING "           WELLS" ON UNIT  32 AT TIME STEP  1, STRESS PERIOD   1
 UBDSV4 SAVING "   RIVER LEAKAGE" ON UNIT  32 AT TIME STEP  1, STRESS PERIOD   1
 UBDSV3 SAVING "        RECHARGE" ON UNIT  32 AT TIME STEP  1, STRESS PERIOD   1
1
              HEAD IN LAYER   1 AT END OF TIME STEP   1 IN STRESS PERIOD    1
  ---------------------------------------------------------------------------

           1       2       3       4       5       6       7       8       9      10      11      12      13      14      15
          16      17      18      19      20      21      22      23      24      25      26      27
 ...........................................................................................................................
   1   302.74  302.66  302.52  302.30  302.00  301.63  301.18  300.66  300.13  299.70  299.39  299.15  299.00  298.90  298.80
       298.63  298.37  297.98  297.39  296.47  295.29  293.95  292.41  290.64  288.58  286.17  283.31
   2   302.73  302.66  302.51  302.29  301.99  301.62  301.17  300.65  300.11  299.69  299.38  299.14  298.98  298.89  298.78
       298.62  298.35  297.97  297.37  296.46  295.28  293.94  292.40  290.63  288.58  286.17  283.31
   3   302.72  302.65  302.50  302.28  301.98  301.61  301.16  300.63  300.09  299.67  299.35  299.12  298.96  298.86  298.76
       298.60  298.33  297.94  297.35  296.44  295.27  293.93  292.39  290.62  288.57  286.16  283.31
   4   302.71  302.63  302.48  302.26  301.96  301.58  301.13  300.60  300.06  299.64  299.32  299.08  298.93  298.83  298.73
       298.56  298.30  297.91  297.32  296.41  295.24  293.90  292.37  290.61  288.56  286.15  283.30
   5   302.69  302.62  302.46  302.24  301.93  301.55  301.10  300.56  300.02  299.59  299.28  299.04  298.88  298.79  298.68
       298.52  298.26  297.87  297.28  296.37  295.20  293.87  292.35  290.59  288.54  286.14  283.30
   6   302.67  302.60  302.44  302.21  301.91  301.52  301.06  300.52  299.97  299.55  299.23  298.99  298.83  298.73  298.63
       298.47  298.21  297.82  297.23  296.33  295.17  293.84  292.32  290.56  288.52  286.13  283.29
   7   302.66  302.58  302.42  302.19  301.88  301.49  301.02  300.47  299.92  299.49  299.17  298.94  298.78  298.68  298.58
       298.42  298.15  297.77  297.18  296.28  295.13  293.81  292.29  290.54  288.51  286.12  283.28
   8   302.64  302.56  302.41  302.17  301.85  301.46  300.98  300.43  299.88  299.44  299.12  298.88  298.73  298.63  298.53
       298.36  298.10  297.71  297.13  296.24  295.09  293.78  292.27  290.52  288.49  286.11  283.28
   9   302.63  302.55  302.39  302.16  301.84  301.44  300.96  300.40  299.84  299.40  299.08  298.84  298.69  298.59  298.48
       298.32  298.06  297.67  297.09  296.21  295.06  293.76  292.25  290.51  288.48  286.10  283.28
  10   302.63  302.55  302.39  302.15  301.83  301.43  300.95  300.38  299.82  299.38  299.06  298.82  298.66  298.56  298.46
       298.30  298.04  297.65  297.08  296.19  295.05  293.75  292.24  290.50  288.48  286.10  283.27
  11   302.63  302.55  302.39  302.15  301.83  301.42  300.94  300.38  299.81  299.37  299.05  298.81  298.65  298.55  298.45
       298.29  298.03  297.64  297.07  296.19  295.05  293.74  292.24  290.50  288.48  286.10  283.27
  12   302.63  302.55  302.39  302.15  301.83  301.42  300.94  300.37  299.81  299.37  299.05  298.81  298.65  298.55  298.45
       298.28  298.02  297.64  297.06  296.18  295.04  293.74  292.24  290.50  288.48  286.10  283.27
  13   302.62  302.55  302.39  302.15  301.82  301.42  300.94  300.37  299.81  299.37  299.05  298.80  298.65  298.55  298.45
       298.28  298.02  297.64  297.06  296.18  295.04  293.74  292.24  290.50  288.48  286.10  283.27
  14   302.62  302.55  302.39  302.15  301.82  301.42  300.94  300.37  299.81  299.37  299.04  298.80  298.65  298.55  298.45
       298.28  298.02  297.64  297.06  296.18  295.04  293.74  292.24  290.50  288.48  286.10  283.27
  15   302.62  302.55  302.39  302.15  301.82  301.42  300.94  300.37  299.81  299.37  299.05  298.80  298.65  298.55  298.45
       298.28  298.02  297.64  297.06  296.18  295.04  293.74  292.24  290.50  288.48  286.10  283.27
  16   302.63  302.55  302.39  302.15  301.83  301.42  300.94  300.37  299.81  299.37  299.05  298.81  298.65  298.55  298.45
       298.28  298.02  297.64  297.06  296.18  295.04  293.74  292.24  290.50  288.48  286.10  283.27
  17   302.63  302.55  302.39  302.15  301.83  301.42  300.94  300.38  299.81  299.37  299.05  298.81  298.65  298.55  298.45
       298.29  298.03  297.64  297.07  296.19  295.05  293.74  292.24  290.50  288.48  286.10  283.27
  18   302.63  302.55  302.39  302.15  301.83  301.43  300.95  300.38  299.82  299.38  299.06  298.82  298.66  298.56  298.46
       298.30  298.04  297.65  297.08  296.19  295.05  293.75  292.24  290.50  288.48  286.10  283.27
  19   302.63  302.55  302.39  302.16  301.84  301.44  300.96  300.40  299.84  299.40  299.08  298.84  298.68  298.59  298.48
       298.32  298.06  297.67  297.09  296.21  295.06  293.76  292.25  290.51  288.48  286.10  283.28
  20   302.64  302.56  302.41  302.17  301.85  301.46  300.98  300.43  299.88  299.44  299.12  298.88  298.73  298.63  298.53
       298.36  298.10  297.71  297.13  296.24  295.09  293.78  292.27  290.52  288.49  286.11  283.28
  21   302.66  302.58  302.42  302.19  301.88  301.49  301.02  300.47  299.92  299.49  299.17  298.94  298.78  298.68  298.58
       298.42  298.15  297.77  297.18  296.28  295.13  293.81  292.29  290.54  288.51  286.12  283.28
  22   302.67  302.60  302.44  302.21  301.91  301.52  301.06  300.52  299.97  299.55  299.23  298.99  298.83  298.73  298.63
       298.47  298.21  297.82  297.23  296.33  295.17  293.84  292.32  290.56  288.52  286.13  283.29
  23   302.69  302.62  302.46  302.24  301.93  301.55  301.10  300.56  300.02  299.59  299.28  299.04  298.88  298.79  298.68
       298.52  298.26  297.87  297.28  296.37  295.21  293.87  292.35  290.59  288.54  286.14  283.30
  24   302.71  302.63  302.48  302.26  301.96  301.58  301.13  300.60  300.06  299.64  299.32  299.08  298.93  298.83  298.73
       298.56  298.30  297.91  297.32  296.41  295.24  293.90  292.37  290.61  288.56  286.15  283.30
  25   302.72  302.65  302.50  302.28  301.98  301.61  301.16  300.63  300.09  299.67  299.35  299.12  298.96  298.86  298.76
       298.60  298.33  297.94  297.35  296.44  295.27  293.93  292.39  290.62  288.57  286.16  283.31
  26   302.73  302.66  302.51  302.29  301.99  301.62  301.17  300.65  300.11  299.69  299.38  299.14  298.98  298.89  298.78
       298.62  298.35  297.97  297.37  296.46  295.28  293.94  292.40  290.63  288.58  286.17  283.31
  27   302.74  302.66  302.52  302.30  302.00  301.63  301.18  300.66  300.13  299.70  299.39  299.15  299.00  298.90  298.80
       298.63  298.37  297.98  297.39  296.47  295.29  293.95  292.41  290.64  288.58  286.17  283.31
1
              HEAD IN LAYER   2 AT END OF TIME STEP   1 IN STRESS PERIOD    1
  ---------------------------------------------------------------------------

           1       2       3       4       5       6       7       8       9      10      11      12      13      14      15
          16      17      18      19      20      21      22      23      24      25      26      27
 ...........................................................................................................................
   1   297.79  297.73  297.60  297.41  297.17  296.88  296.54  296.16  295.81  295.55  295.36  295.23  295.14  295.09  295.03
       294.94  294.80  294.61  294.33  293.93  293.48  293.03  292.58  292.16  291.78  291.47  291.26
   2   297.78  297.71  297.58  297.39  297.14  296.84  296.50  296.12  295.76  295.50  295.31  295.18  295.09  295.03  294.98
       294.89  294.75  294.56  294.28  293.89  293.44  292.99  292.56  292.14  291.76  291.45  291.25
   3   297.75  297.68  297.55  297.35  297.09  296.78  296.42  296.03  295.66  295.40  295.21  295.07  294.98  294.93  294.87
       294.78  294.65  294.45  294.18  293.80  293.36  292.93  292.51  292.10  291.73  291.42  291.22
   4   297.71  297.64  297.49  297.28  297.01  296.68  296.31  295.89  295.51  295.23  295.04  294.90  294.81  294.76  294.70
       294.62  294.48  294.29  294.02  293.66  293.24  292.83  292.43  292.04  291.68  291.38  291.18
   5   297.66  297.58  297.43  297.21  296.91  296.56  296.15  295.70  295.29  295.00  294.80  294.66  294.57  294.52  294.46
       294.38  294.24  294.06  293.81  293.47  293.09  292.71  292.33  291.96  291.62  291.32  291.13
   6   297.60  297.52  297.36  297.12  296.80  296.41  295.95  295.45  295.00  294.69  294.48  294.33  294.24  294.19  294.13
       294.05  293.92  293.75  293.52  293.22  292.89  292.55  292.21  291.87  291.54  291.26  291.08
   7   297.55  297.46  297.29  297.02  296.67  296.24  295.72  295.15  294.63  294.27  294.04  293.89  293.80  293.74  293.69
       293.60  293.48  293.33  293.14  292.91  292.66  292.39  292.09  291.78  291.47  291.21  291.03
   8   297.50  297.41  297.22  296.94  296.55  296.07  295.48  294.80  294.17  293.74  293.47  293.30  293.20  293.15  293.09
       293.02  292.91  292.80  292.68  292.57  292.41  292.21  291.97  291.69  291.41  291.15  290.98
   9   297.47  297.37  297.18  296.88  296.47  295.94  295.28  294.49  293.72  293.17  292.84  292.64  292.54  292.48  292.43
       292.36  292.28  292.23  292.23  292.26  292.22  292.09  291.88  291.63  291.36  291.12  290.95
  10   297.46  297.36  297.16  296.85  296.42  295.87  295.17  294.31  293.42  292.77  292.36  292.13  292.01  291.95  291.90
       291.85  291.81  291.83  291.94  292.07  292.11  292.02  291.84  291.60  291.34  291.10  290.93
  11   297.45  297.35  297.15  296.83  296.40  295.84  295.12  294.22  293.27  292.55  292.08  291.81  291.69  291.63  291.58
       291.53  291.52  291.60  291.78  291.99  292.06  291.99  291.82  291.59  291.33  291.10  290.93
  12   297.45  297.35  297.14  296.83  296.40  295.83  295.10  294.18  293.20  292.44  291.95  291.66  291.52  291.46  291.41
       291.37  291.39  291.50  291.72  291.95  292.04  291.98  291.81  291.58  291.33  291.09  290.93
  13   297.45  297.35  297.14  296.83  296.39  295.82  295.09  294.17  293.18  292.41  291.91  291.61  291.47  291.40  291.36
       291.32  291.35  291.47  291.70  291.94  292.03  291.97  291.81  291.58  291.33  291.09  290.93
  14   297.45  297.35  297.14  296.83  296.39  295.82  295.09  294.17  293.18  292.41  291.90  291.60  291.46  291.39  291.35
       291.31  291.34  291.47  291.69  291.94  292.03  291.97  291.81  291.58  291.33  291.09  290.92
  15   297.45  297.35  297.14  296.83  296.39  295.82  295.09  294.17  293.18  292.41  291.91  291.61  291.47  291.40  291.36
       291.32  291.35  291.47  291.70  291.94  292.03  291.97  291.81  291.58  291.33  291.09  290.93
  16   297.45  297.35  297.14  296.83  296.40  295.83  295.10  294.18  293.20  292.44  291.95  291.66  291.52  291.46  291.41
       291.37  291.39  291.50  291.72  291.95  292.04  291.98  291.81  291.58  291.33  291.09  290.93
  17   297.45  297.35  297.15  296.83  296.40  295.84  295.12  294.22  293.27  292.55  292.08  291.81  291.69  291.63  291.58
       291.53  291.52  291.60  291.78  291.99  292.06  291.99  291.82  291.59  291.33  291.10  290.93
  18   297.46  297.36  297.16  296.85  296.42  295.87  295.17  294.31  293.42  292.77  292.36  292.13  292.01  291.95  291.90
       291.85  291.81  291.83  291.94  292.07  292.11  292.02  291.84  291.60  291.34  291.10  290.93
  19   297.47  297.37  297.18  296.88  296.47  295.94  295.28  294.49  293.72  293.17  292.84  292.64  292.54  292.48  292.43
       292.36  292.28  292.23  292.23  292.26  292.22  292.09  291.88  291.63  291.36  291.12  290.95
  20   297.50  297.41  297.22  296.94  296.55  296.07  295.48  294.80  294.17  293.74  293.47  293.30  293.20  293.15  293.09
       293.02  292.91  292.80  292.68  292.57  292.41  292.21  291.97  291.69  291.41  291.15  290.98
  21   297.55  297.46  297.29  297.02  296.67  296.24  295.72  295.15  294.63  294.27  294.04  293.89  293.80  293.74  293.69
       293.60  293.48  293.33  293.14  292.91  292.66  292.39  292.09  291.78  291.47  291.21  291.03
  22   297.60  297.52  297.36  297.12  296.80  296.41  295.95  295.45  295.00  294.69  294.48  294.33  294.24  294.19  294.13
       294.05  293.92  293.75  293.52  293.22  292.89  292.55  292.21  291.87  291.54  291.26  291.08
  23   297.66  297.58  297.43  297.21  296.91  296.56  296.15  295.70  295.29  295.00  294.80  294.66  294.57  294.52  294.46
       294.38  294.24  294.06  293.81  293.47  293.09  292.71  292.33  291.96  291.62  291.32  291.13
  24   297.71  297.64  297.49  297.28  297.01  296.68  296.31  295.89  295.51  295.23  295.04  294.90  294.81  294.76  294.70
       294.62  294.48  294.29  294.02  293.66  293.24  292.83  292.43  292.04  291.68  291.38  291.18
  25   297.75  297.68  297.55  297.35  297.09  296.78  296.42  296.03  295.66  295.40  295.21  295.07  294.98  294.93  294.87
       294.78  294.65  294.45  294.18  293.80  293.36  292.93  292.51  292.10  291.73  291.42  291.22
  26   297.78  297.71  297.58  297.39  297.14  296.84  296.50  296.12  295.76  295.50  295.31  295.18  295.09  295.03  294.98
       294.89  294.75  294.56  294.28  293.89  293.44  292.99  292.56  292.14  291.76  291.45  291.25
  27   297.79  297.73  297.60  297.41  297.17  296.88  296.54  296.16  295.81  295.55  295.36  295.23  295.14  295.09  295.03
       294.94  294.80  294.61  294.33  293.93  293.48  293.03  292.58  292.17  291.78  291.47  291.26
1
              HEAD IN LAYER   3 AT END OF TIME STEP   1 IN STRESS PERIOD    1
  ---------------------------------------------------------------------------

           1       2       3       4       5       6       7       8       9      10      11      12      13      14      15
          16      17      18      19      20      21      22      23      24      25      26      27
 ...........................................................................................................................
   1   297.61  297.54  297.42  297.23  296.99  296.70  296.36  296.00  295.65  295.40  295.21  295.08  295.00  294.94  294.89
       294.81  294.67  294.48  294.21  293.84  293.41  293.00  292.60  292.23  291.91  291.66  291.51
   2   297.59  297.53  297.40  297.21  296.96  296.66  296.32  295.95  295.60  295.34  295.16  295.03  294.94  294.89  294.84
       294.75  294.62  294.43  294.16  293.79  293.37  292.96  292.57  292.21  291.89  291.64  291.50
   3   297.56  297.49  297.36  297.16  296.91  296.60  296.25  295.86  295.50  295.24  295.05  294.92  294.83  294.78  294.73
       294.64  294.51  294.32  294.06  293.70  293.29  292.90  292.52  292.16  291.85  291.61  291.47
   4   297.52  297.45  297.31  297.10  296.83  296.50  296.12  295.71  295.34  295.07  294.88  294.74  294.66  294.61  294.55
       294.47  294.34  294.16  293.90  293.56  293.17  292.80  292.44  292.10  291.80  291.56  291.43
   5   297.47  297.39  297.24  297.02  296.72  296.37  295.96  295.52  295.11  294.83  294.63  294.49  294.41  294.35  294.30
       294.22  294.09  293.92  293.68  293.36  293.01  292.67  292.33  292.02  291.73  291.51  291.38
   6   297.41  297.33  297.17  296.93  296.60  296.21  295.76  295.26  294.81  294.50  294.29  294.14  294.06  294.00  293.95
       293.87  293.75  293.58  293.37  293.10  292.80  292.51  292.21  291.93  291.66  291.45  291.32
   7   297.36  297.27  297.09  296.83  296.48  296.04  295.52  294.93  294.41  294.05  293.81  293.66  293.57  293.52  293.46
       293.39  293.27  293.13  292.97  292.78  292.56  292.33  292.09  291.83  291.59  291.39  291.27
   8   297.31  297.22  297.03  296.74  296.35  295.86  295.25  294.55  293.89  293.43  293.15  292.97  292.88  292.82  292.77
       292.70  292.61  292.52  292.45  292.40  292.30  292.16  291.96  291.74  291.52  291.33  291.22
   9   297.28  297.18  296.98  296.68  296.26  295.72  295.04  294.20  293.34  292.70  292.30  292.07  291.95  291.89  291.85
       291.79  291.76  291.79  291.90  292.05  292.09  292.02  291.87  291.68  291.48  291.30  291.19
  10   297.26  297.16  296.96  296.65  296.22  295.65  294.92  293.99  292.94  292.07  291.48  291.14  290.98  290.92  290.88
       290.86  290.94  291.16  291.51  291.83  291.97  291.95  291.83  291.65  291.45  291.28  291.17
  11   297.26  297.15  296.95  296.63  296.19  295.62  294.86  293.88  292.71  291.65  290.84  290.33  290.11  290.03  290.00
       290.05  290.30  290.74  291.28  291.72  291.91  291.91  291.80  291.63  291.44  291.27  291.17
  12   297.25  297.15  296.94  296.63  296.19  295.60  294.84  293.83  292.61  291.44  290.46  289.75  289.42  289.32  289.31
       289.47  289.91  290.53  291.18  291.67  291.89  291.90  291.80  291.63  291.44  291.27  291.16
  13   297.25  297.15  296.94  296.63  296.18  295.60  294.83  293.82  292.58  291.37  290.32  289.50  289.06  288.92  288.95
       289.22  289.78  290.46  291.15  291.66  291.88  291.90  291.79  291.63  291.44  291.27  291.16
  14   297.25  297.15  296.94  296.63  296.18  295.60  294.83  293.82  292.58  291.36  290.30  289.46  288.97  288.78  288.86
       289.18  289.76  290.45  291.14  291.66  291.88  291.90  291.79  291.63  291.44  291.27  291.16
  15   297.25  297.15  296.94  296.63  296.18  295.60  294.83  293.82  292.58  291.37  290.32  289.50  289.06  288.92  288.95
       289.22  289.78  290.46  291.15  291.66  291.88  291.90  291.79  291.63  291.44  291.27  291.16
  16   297.25  297.15  296.94  296.63  296.19  295.60  294.84  293.83  292.61  291.44  290.46  289.75  289.42  289.32  289.31
       289.47  289.91  290.53  291.18  291.67  291.89  291.90  291.80  291.63  291.44  291.27  291.16
  17   297.26  297.15  296.95  296.63  296.19  295.62  294.86  293.88  292.71  291.65  290.84  290.33  290.11  290.03  290.00
       290.05  290.30  290.74  291.28  291.72  291.91  291.91  291.80  291.63  291.44  291.27  291.17
  18   297.26  297.16  296.96  296.65  296.22  295.65  294.92  293.99  292.94  292.07  291.48  291.14  290.98  290.92  290.88
       290.86  290.94  291.16  291.51  291.83  291.97  291.95  291.83  291.65  291.45  291.28  291.17
  19   297.28  297.18  296.98  296.68  296.26  295.72  295.04  294.20  293.34  292.70  292.30  292.07  291.95  291.89  291.85
       291.79  291.76  291.79  291.90  292.05  292.09  292.02  291.87  291.68  291.48  291.30  291.19
  20   297.31  297.22  297.03  296.74  296.35  295.86  295.25  294.55  293.89  293.43  293.15  292.97  292.88  292.82  292.77
       292.70  292.61  292.52  292.45  292.40  292.30  292.16  291.96  291.74  291.52  291.33  291.22
  21   297.36  297.27  297.09  296.83  296.48  296.04  295.52  294.93  294.41  294.05  293.81  293.66  293.57  293.52  293.46
       293.39  293.27  293.13  292.97  292.78  292.56  292.33  292.09  291.83  291.59  291.39  291.27
  22   297.41  297.33  297.17  296.93  296.60  296.21  295.76  295.26  294.81  294.50  294.29  294.14  294.06  294.00  293.95
       293.87  293.75  293.58  293.37  293.10  292.80  292.51  292.21  291.93  291.66  291.45  291.32
  23   297.47  297.39  297.24  297.02  296.72  296.37  295.96  295.52  295.11  294.83  294.63  294.49  294.41  294.35  294.30
       294.22  294.09  293.92  293.68  293.36  293.01  292.67  292.33  292.02  291.73  291.51  291.38
  24   297.52  297.45  297.31  297.10  296.83  296.50  296.12  295.71  295.34  295.07  294.88  294.74  294.66  294.61  294.55
       294.47  294.34  294.16  293.90  293.56  293.17  292.80  292.44  292.10  291.80  291.56  291.43
  25   297.56  297.49  297.36  297.16  296.91  296.60  296.25  295.86  295.50  295.24  295.05  294.92  294.83  294.78  294.73
       294.64  294.51  294.32  294.06  293.70  293.29  292.90  292.52  292.16  291.85  291.61  291.47
  26   297.59  297.53  297.40  297.21  296.96  296.66  296.33  295.95  295.60  295.34  295.16  295.03  294.94  294.89  294.84
       294.75  294.62  294.43  294.16  293.79  293.37  292.96  292.57  292.21  291.89  291.64  291.50
  27   297.61  297.54  297.42  297.23  296.99  296.70  296.36  296.00  295.65  295.40  295.21  295.08  295.00  294.94  294.89
       294.81  294.67  294.48  294.21  293.84  293.41  293.00  292.60  292.23  291.91  291.66  291.51
1
              HEAD IN LAYER   4 AT END OF TIME STEP   1 IN STRESS PERIOD    1
  ---------------------------------------------------------------------------

           1       2       3       4       5       6       7       8       9      10      11      12      13      14      15
          16      17      18      19      20      21      22      23      24      25      26      27
 ...........................................................................................................................
   1   297.48  297.42  297.29  297.11  296.87  296.58  296.25  295.88  295.54  295.29  295.11  294.98  294.90  294.85  294.80
       294.72  294.58  294.40  294.14  293.78  293.37  292.98  292.61  292.27  291.99  291.78  291.66
   2   297.47  297.40  297.27  297.08  296.84  296.55  296.21  295.84  295.49  295.24  295.06  294.93  294.85  294.80  294.74
       294.66  294.53  294.35  294.09  293.73  293.33  292.95  292.58  292.25  291.97  291.76  291.64
   3   297.44  297.37  297.24  297.04  296.78  296.48  296.13  295.74  295.39  295.13  294.95  294.82  294.73  294.68  294.63
       294.55  294.42  294.24  293.99  293.64  293.25  292.88  292.53  292.21  291.93  291.73  291.61
   4   297.39  297.32  297.18  296.97  296.70  296.38  296.00  295.60  295.22  294.96  294.77  294.64  294.55  294.50  294.45
       294.37  294.24  294.07  293.82  293.49  293.13  292.78  292.44  292.14  291.88  291.68  291.57
   5   297.34  297.27  297.11  296.89  296.60  296.24  295.84  295.39  294.99  294.71  294.51  294.38  294.29  294.24  294.19
       294.11  293.98  293.82  293.59  293.29  292.96  292.64  292.34  292.06  291.81  291.63  291.52
   6   297.29  297.20  297.04  296.80  296.48  296.08  295.62  295.12  294.67  294.36  294.15  294.01  293.93  293.87  293.82
       293.74  293.62  293.47  293.27  293.02  292.75  292.48  292.22  291.96  291.74  291.56  291.47
   7   297.23  297.14  296.96  296.70  296.34  295.90  295.37  294.78  294.24  293.88  293.64  293.49  293.40  293.35  293.29
       293.22  293.11  292.99  292.84  292.68  292.50  292.30  292.08  291.87  291.66  291.50  291.41
   8   297.18  297.09  296.90  296.61  296.21  295.71  295.10  294.37  293.67  293.18  292.87  292.69  292.59  292.54  292.49
       292.42  292.35  292.29  292.27  292.27  292.22  292.11  291.96  291.77  291.59  291.45  291.36
   9   297.15  297.05  296.85  296.54  296.12  295.57  294.87  293.98  293.01  292.24  291.73  291.44  291.31  291.25  291.21
       291.17  291.20  291.35  291.61  291.87  291.99  291.97  291.86  291.71  291.55  291.41  291.33
  10   297.13  297.03  296.83  296.51  296.07  295.49  294.73  293.72  292.48  291.27  290.28  289.64  289.38  289.30  289.28
       289.37  289.75  290.38  291.08  291.62  291.86  291.89  291.82  291.68  291.53  291.39  291.31
  11   297.13  297.02  296.82  296.50  296.05  295.46  294.67  293.59  292.14  290.45  288.67  287.13  286.39  286.22  286.29
       286.86  288.14  289.56  290.74  291.48  291.80  291.86  291.79  291.66  291.52  291.38  291.31
  12   297.12  297.02  296.81  296.49  296.04  295.44  294.65  293.53  291.98  289.94  287.26  283.94  281.48  280.77  281.38
       283.67  286.73  289.05  290.57  291.43  291.77  291.85  291.79  291.66  291.51  291.38  291.30
  13   297.12  297.02  296.81  296.49  296.04  295.44  294.64  293.52  291.92  289.76  286.60  281.57  275.21  270.92  275.11
       281.30  286.07  288.87  290.52  291.41  291.76  291.84  291.78  291.66  291.51  291.38  291.30
  14   297.12  297.02  296.81  296.49  296.04  295.44  294.64  293.51  291.92  289.73  286.48  280.90  270.98  251.22  270.87
       280.63  285.95  288.84  290.51  291.41  291.76  291.84  291.78  291.66  291.51  291.38  291.30
  15   297.12  297.02  296.81  296.49  296.04  295.44  294.64  293.52  291.92  289.76  286.60  281.57  275.21  270.92  275.11
       281.30  286.07  288.87  290.52  291.41  291.76  291.84  291.78  291.66  291.51  291.38  291.30
  16   297.12  297.02  296.81  296.49  296.04  295.44  294.65  293.53  291.98  289.94  287.26  283.94  281.48  280.77  281.38
       283.67  286.73  289.05  290.57  291.43  291.77  291.85  291.79  291.66  291.51  291.38  291.30
  17   297.13  297.02  296.82  296.50  296.05  295.46  294.67  293.59  292.14  290.45  288.67  287.13  286.39  286.22  286.29
       286.86  288.14  289.56  290.74  291.48  291.80  291.86  291.79  291.66  291.52  291.38  291.31
  18   297.13  297.03  296.83  296.51  296.07  295.49  294.73  293.72  292.48  291.27  290.28  289.64  289.38  289.30  289.28
       289.37  289.75  290.38  291.08  291.62  291.86  291.89  291.82  291.68  291.53  291.39  291.31
  19   297.15  297.05  296.85  296.54  296.12  295.57  294.87  293.98  293.01  292.24  291.73  291.44  291.31  291.25  291.21
       291.17  291.20  291.35  291.61  291.87  291.99  291.97  291.86  291.71  291.55  291.41  291.33
  20   297.18  297.09  296.90  296.61  296.21  295.71  295.10  294.37  293.67  293.18  292.87  292.69  292.59  292.54  292.49
       292.42  292.35  292.29  292.27  292.27  292.22  292.11  291.96  291.77  291.59  291.45  291.36
  21   297.23  297.14  296.96  296.70  296.34  295.90  295.37  294.78  294.24  293.88  293.64  293.49  293.40  293.35  293.30
       293.22  293.11  292.99  292.84  292.68  292.50  292.30  292.08  291.87  291.66  291.50  291.41
  22   297.29  297.20  297.04  296.80  296.48  296.08  295.62  295.12  294.67  294.36  294.15  294.01  293.93  293.87  293.82
       293.74  293.62  293.47  293.27  293.02  292.75  292.48  292.22  291.96  291.74  291.56  291.47
  23   297.34  297.27  297.12  296.89  296.60  296.24  295.84  295.39  294.99  294.71  294.51  294.38  294.29  294.24  294.19
       294.11  293.98  293.82  293.59  293.29  292.96  292.64  292.34  292.06  291.81  291.63  291.52
  24   297.39  297.32  297.18  296.97  296.70  296.38  296.00  295.60  295.22  294.96  294.77  294.64  294.55  294.50  294.45
       294.37  294.24  294.07  293.82  293.49  293.13  292.78  292.44  292.14  291.88  291.68  291.57
  25   297.44  297.37  297.24  297.04  296.78  296.48  296.13  295.74  295.39  295.13  294.95  294.82  294.73  294.68  294.63
       294.55  294.42  294.24  293.99  293.64  293.25  292.88  292.53  292.21  291.93  291.73  291.61
  26   297.47  297.40  297.27  297.08  296.84  296.55  296.21  295.84  295.49  295.24  295.06  294.93  294.85  294.80  294.74
       294.66  294.53  294.35  294.09  293.73  293.33  292.95  292.58  292.25  291.97  291.76  291.64
  27   297.48  297.42  297.29  297.11  296.87  296.58  296.25  295.88  295.54  295.29  295.11  294.99  294.90  294.85  294.80
       294.72  294.58  294.40  294.14  293.78  293.37  292.98  292.61  292.27  291.99  291.78  291.66
1
              HEAD IN LAYER   5 AT END OF TIME STEP   1 IN STRESS PERIOD    1
  ---------------------------------------------------------------------------

           1       2       3       4       5       6       7       8       9      10      11      12      13      14      15
          16      17      18      19      20      21      22      23      24      25      26      27
 ...........................................................................................................................
   1   297.42  297.36  297.23  297.05  296.81  296.52  296.19  295.83  295.49  295.24  295.06  294.94  294.86  294.80  294.75
       294.67  294.54  294.36  294.11  293.75  293.35  292.97  292.62  292.30  292.03  291.83  291.73
   2   297.40  297.34  297.21  297.02  296.78  296.49  296.15  295.78  295.44  295.19  295.01  294.88  294.80  294.75  294.70
       294.62  294.49  294.31  294.05  293.70  293.31  292.94  292.59  292.27  292.01  291.82  291.71
   3   297.37  297.31  297.17  296.98  296.72  296.42  296.07  295.69  295.33  295.08  294.90  294.77  294.68  294.63  294.58
       294.50  294.37  294.20  293.95  293.61  293.23  292.87  292.53  292.23  291.97  291.78  291.68
   4   297.33  297.26  297.12  296.91  296.64  296.31  295.94  295.54  295.17  294.90  294.72  294.59  294.50  294.45  294.40
       294.32  294.19  294.02  293.78  293.46  293.10  292.77  292.45  292.16  291.92  291.74  291.64
   5   297.28  297.20  297.05  296.83  296.53  296.18  295.77  295.33  294.93  294.65  294.45  294.32  294.24  294.19  294.13
       294.05  293.93  293.77  293.54  293.25  292.93  292.63  292.34  292.08  291.85  291.68  291.59
   6   297.22  297.14  296.98  296.73  296.41  296.02  295.56  295.05  294.60  294.29  294.08  293.95  293.86  293.81  293.76
       293.68  293.56  293.41  293.22  292.97  292.72  292.47  292.22  291.98  291.78  291.62  291.53
   7   297.17  297.08  296.90  296.63  296.28  295.83  295.30  294.71  294.16  293.79  293.56  293.41  293.32  293.27  293.22
       293.14  293.04  292.91  292.78  292.63  292.46  292.28  292.08  291.88  291.70  291.56  291.48
   8   297.12  297.02  296.83  296.54  296.15  295.64  295.02  294.28  293.58  293.09  292.79  292.61  292.51  292.46  292.41
       292.34  292.26  292.21  292.19  292.20  292.18  292.09  291.95  291.79  291.63  291.50  291.43
   9   297.08  296.98  296.78  296.48  296.05  295.49  294.78  293.88  292.92  292.20  291.75  291.50  291.38  291.32  291.28
       291.23  291.23  291.32  291.54  291.80  291.94  291.95  291.86  291.73  291.58  291.46  291.40
  10   297.07  296.97  296.76  296.44  296.00  295.42  294.65  293.63  292.43  291.42  290.74  290.35  290.19  290.12  290.08
       290.08  290.21  290.54  291.05  291.55  291.81  291.87  291.81  291.69  291.56  291.45  291.38
  11   297.06  296.96  296.75  296.43  295.98  295.38  294.58  293.50  292.15  290.91  289.96  289.38  289.14  289.06  289.04
       289.11  289.44  290.03  290.77  291.42  291.74  291.83  291.79  291.68  291.55  291.44  291.37
  12   297.06  296.96  296.75  296.42  295.97  295.36  294.55  293.44  292.03  290.64  289.50  288.71  288.35  288.25  288.25
       288.44  288.98  289.77  290.64  291.36  291.72  291.82  291.78  291.67  291.55  291.44  291.37
  13   297.06  296.95  296.74  296.42  295.97  295.36  294.55  293.42  291.99  290.56  289.34  288.43  287.95  287.81  287.85
       288.16  288.82  289.68  290.60  291.35  291.71  291.81  291.78  291.67  291.55  291.43  291.37
  14   297.06  296.95  296.74  296.42  295.97  295.36  294.54  293.42  291.98  290.55  289.32  288.38  287.86  287.66  287.76
       288.11  288.80  289.67  290.60  291.34  291.71  291.81  291.78  291.67  291.55  291.43  291.37
  15   297.06  296.95  296.74  296.42  295.97  295.36  294.55  293.42  291.99  290.56  289.34  288.43  287.95  287.81  287.85
       288.16  288.82  289.68  290.60  291.35  291.71  291.81  291.78  291.67  291.55  291.43  291.37
  16   297.06  296.96  296.75  296.42  295.97  295.36  294.55  293.44  292.03  290.64  289.50  288.71  288.35  288.25  288.25
       288.44  288.98  289.77  290.64  291.36  291.72  291.82  291.78  291.67  291.55  291.44  291.37
  17   297.06  296.96  296.75  296.43  295.98  295.38  294.58  293.50  292.15  290.91  289.96  289.38  289.14  289.06  289.04
       289.11  289.44  290.03  290.77  291.42  291.74  291.83  291.79  291.68  291.55  291.44  291.37
  18   297.07  296.97  296.76  296.44  296.00  295.42  294.65  293.63  292.43  291.42  290.74  290.35  290.19  290.12  290.08
       290.08  290.21  290.54  291.05  291.55  291.81  291.87  291.81  291.69  291.56  291.45  291.38
  19   297.08  296.98  296.78  296.48  296.05  295.49  294.78  293.88  292.92  292.20  291.75  291.50  291.38  291.32  291.28
       291.23  291.23  291.32  291.54  291.80  291.94  291.95  291.86  291.73  291.58  291.46  291.40
  20   297.12  297.02  296.83  296.54  296.15  295.64  295.02  294.28  293.58  293.09  292.79  292.61  292.51  292.46  292.41
       292.34  292.26  292.21  292.19  292.20  292.18  292.09  291.95  291.79  291.63  291.50  291.43
  21   297.17  297.08  296.90  296.63  296.28  295.83  295.30  294.71  294.16  293.79  293.56  293.41  293.32  293.27  293.22
       293.14  293.04  292.91  292.78  292.63  292.46  292.28  292.08  291.88  291.70  291.56  291.48
  22   297.22  297.14  296.98  296.73  296.41  296.02  295.56  295.05  294.60  294.29  294.08  293.95  293.86  293.81  293.76
       293.68  293.56  293.41  293.22  292.97  292.72  292.47  292.22  291.98  291.78  291.62  291.53
  23   297.28  297.20  297.05  296.83  296.53  296.18  295.77  295.33  294.93  294.65  294.45  294.32  294.24  294.19  294.13
       294.05  293.93  293.77  293.54  293.25  292.93  292.63  292.34  292.08  291.85  291.68  291.59
  24   297.33  297.26  297.12  296.91  296.64  296.31  295.94  295.54  295.17  294.90  294.72  294.59  294.50  294.45  294.40
       294.32  294.19  294.02  293.78  293.46  293.10  292.77  292.45  292.16  291.92  291.74  291.64
  25   297.37  297.31  297.17  296.98  296.72  296.42  296.07  295.69  295.33  295.08  294.90  294.77  294.68  294.63  294.58
       294.50  294.37  294.20  293.95  293.61  293.23  292.87  292.53  292.23  291.97  291.78  291.68
  26   297.40  297.34  297.21  297.02  296.78  296.49  296.15  295.78  295.44  295.19  295.01  294.88  294.80  294.75  294.70
       294.62  294.49  294.31  294.05  293.70  293.31  292.94  292.59  292.27  292.01  291.82  291.71
  27   297.42  297.36  297.23  297.05  296.81  296.52  296.19  295.83  295.49  295.24  295.06  294.94  294.86  294.80  294.75
       294.67  294.54  294.36  294.11  293.75  293.35  292.97  292.62  292.30  292.03  291.83  291.73

 HEAD WILL BE SAVED ON UNIT   30 AT END OF TIME STEP   1, STRESS PERIOD    1
1
  VOLUMETRIC BUDGET FOR ENTIRE MODEL AT END OF TIME STEP  1 IN STRESS PERIOD   1
  ------------------------------------------------------------------------------

     CUMULATIVE VOLUMES      L**3       RATES FOR THIS TIME STEP      L**3/T
     ------------------                 ------------------------

           IN:                                      IN:
           ---                                      ---
             STORAGE =           0.0000               STORAGE =           0.0000
       CONSTANT HEAD =           0.0000         CONSTANT HEAD =           0.0000
               WELLS =           0.0000                 WELLS =           0.0000
       RIVER LEAKAGE =           0.0000         RIVER LEAKAGE =           0.0000
            RECHARGE =      292336.1875              RECHARGE =      292336.1875

            TOTAL IN =      292336.1875              TOTAL IN =      292336.1875

          OUT:                                     OUT:
          ----                                     ----
             STORAGE =           0.0000               STORAGE =           0.0000
       CONSTANT HEAD =           0.0000         CONSTANT HEAD =           0.0000
               WELLS =       80000.0000                 WELLS =       80000.0000
       RIVER LEAKAGE =      212336.1875         RIVER LEAKAGE =      212336.1875
            RECHARGE =           0.0000              RECHARGE =           0.0000

           TOTAL OUT =      292336.1875             TOTAL OUT =      292336.1875

            IN - OUT =           0.0000              IN - OUT =           0.0000

 PERCENT DISCREPANCY =           0.00     PERCENT DISCREPANCY =           0.00






          TIME SUMMARY AT END OF TIME STEP   1 IN STRESS PERIOD    1
                          TIME STEP LENGTH =    1.00000    
                        STRESS PERIOD TIME =    1.00000    
                     TOTAL SIMULATION TIME =    1.00000    
1

 Run end date and time (yyyy/mm/dd hh:mm:ss): 2008/10/29 13:23:40
 Elapsed run time:  0.172 Seconds

