                                  MODFLOW-2005     
      U.S. GEOLOGICAL SURVEY MODULAR FINITE-DIFFERENCE GROUND-WATER FLOW MODEL
                            VERSION 1.5.00 4/28/2008

 LIST FILE: DEMO-T.LST
                         UNIT    1

 OPENING DEMO-T.DIS
 FILE TYPE:DIS   UNIT    9   STATUS:OLD    
 FORMAT:FORMATTED              ACCESS:SEQUENTIAL          

 OPENING DEMO-T.BA6
 FILE TYPE:BAS6   UNIT    2   STATUS:OLD    
 FORMAT:FORMATTED              ACCESS:SEQUENTIAL          

 OPENING DEMO-T.BC6
 FILE TYPE:BCF6   UNIT   11   STATUS:OLD    
 FORMAT:FORMATTED              ACCESS:SEQUENTIAL          

 OPENING DEMO-T.OC
 FILE TYPE:OC   UNIT   12   STATUS:OLD    
 FORMAT:FORMATTED              ACCESS:SEQUENTIAL          

 OPENING DEMO-T.RCH
 FILE TYPE:RCH   UNIT   13   STATUS:OLD    
 FORMAT:FORMATTED              ACCESS:SEQUENTIAL          

 OPENING DEMO-T.WEL
 FILE TYPE:WEL   UNIT   14   STATUS:OLD    
 FORMAT:FORMATTED              ACCESS:SEQUENTIAL          

 OPENING DEMO-T.PCG
 FILE TYPE:PCG   UNIT   15   STATUS:OLD    
 FORMAT:FORMATTED              ACCESS:SEQUENTIAL          

 OPENING DEMO-T.RIV
 FILE TYPE:RIV   UNIT   16   STATUS:OLD    
 FORMAT:FORMATTED              ACCESS:SEQUENTIAL          

 OPENING DEMO-T.HED
 FILE TYPE:DATA(BINARY)   UNIT   32   STATUS:UNKNOWN
 FORMAT:BINARY                 ACCESS:SEQUENTIAL          

 OPENING DEMO-T.BUD
 FILE TYPE:DATA(BINARY)   UNIT   34   STATUS:UNKNOWN
 FORMAT:BINARY                 ACCESS:SEQUENTIAL          

 OPENING DEMO-S.HED
 FILE TYPE:DATA(BINARY)   UNIT   65   STATUS:UNKNOWN
 FORMAT:BINARY                 ACCESS:SEQUENTIAL          

 BAS -- BASIC PACKAGE, VERSION 7, 5/2/2005 INPUT READ FROM UNIT    2

 DISCRETIZATION INPUT DATA READ FROM UNIT    9
    5 LAYERS        27 ROWS        27 COLUMNS
    3 STRESS PERIOD(S) IN SIMULATION
 MODEL TIME UNIT IS DAYS
 MODEL LENGTH UNIT IS UNDEFINED
  Confining bed flag for each layer:
   1   0   0   0   0



                               DELR
 READING ON UNIT    9 WITH FORMAT: (10F10.0)           
   400.00       400.00       400.00       400.00       400.00       400.00       400.00       400.00       300.00       200.00    
   150.00       100.00       60.000       40.000       60.000       100.00       150.00       200.00       300.00       400.00    
   400.00       400.00       400.00       400.00       400.00       400.00       400.00    



                               DELC
 READING ON UNIT    9 WITH FORMAT: (10F10.0)           
   400.00       400.00       400.00       400.00       400.00       400.00       400.00       400.00       300.00       200.00    
   150.00       100.00       60.000       40.000       60.000       100.00       150.00       200.00       300.00       400.00    
   400.00       400.00       400.00       400.00       400.00       400.00       400.00    

 TOP ELEVATION OF LAYER 1 =   400.000    

   MODEL LAYER BOTTOM EL. =   220.000     FOR LAYER   1

 BOT. EL. OF QUASI-3D BED =   200.000     FOR LAYER   1

   MODEL LAYER BOTTOM EL. =   150.000     FOR LAYER   2

   MODEL LAYER BOTTOM EL. =   100.000     FOR LAYER   3

   MODEL LAYER BOTTOM EL. =   50.0000     FOR LAYER   4

   MODEL LAYER BOTTOM EL. =   0.00000     FOR LAYER   5


 STRESS PERIOD     LENGTH       TIME STEPS     MULTIPLIER FOR DELT    SS FLAG
 ----------------------------------------------------------------------------
        1         182500.0          1                    1.000         TR
        2         10950.00          8                    2.000         TR
        3         456200.0          1                    1.000         TR

 TRANSIENT SIMULATION



 
 #MODPATH SAMPLE PROBLEM:                                                        
 #   TRANSIENT FLOW EXAMPLE                                                      

           BOUNDARY ARRAY =              1 FOR LAYER   1

           BOUNDARY ARRAY =              1 FOR LAYER   2

           BOUNDARY ARRAY =              1 FOR LAYER   3

           BOUNDARY ARRAY =              1 FOR LAYER   4

           BOUNDARY ARRAY =              1 FOR LAYER   5

 AQUIFER HEAD WILL BE SET TO  999.90     AT ALL NO-FLOW NODES (IBOUND=0).



                       INITIAL HEAD FOR LAYER   1
 READING BINARY ON UNIT   65

            1           2           3           4           5           6           7           8           9          10
           11          12          13          14          15          16          17          18          19          20
           21          22          23          24          25          26          27
 ........................................................................................................................
   1    302.7       302.7       302.5       302.3       302.0       301.6       301.2       300.7       300.1       299.7    
        299.4       299.2       299.0       298.9       298.8       298.6       298.4       298.0       297.4       296.5    
        295.3       294.0       292.4       290.6       288.6       286.2       283.3    
   2    302.7       302.7       302.5       302.3       302.0       301.6       301.2       300.6       300.1       299.7    
        299.4       299.1       299.0       298.9       298.8       298.6       298.4       298.0       297.4       296.5    
        295.3       293.9       292.4       290.6       288.6       286.2       283.3    
   3    302.7       302.6       302.5       302.3       302.0       301.6       301.2       300.6       300.1       299.7    
        299.4       299.1       299.0       298.9       298.8       298.6       298.3       297.9       297.4       296.4    
        295.3       293.9       292.4       290.6       288.6       286.2       283.3    
   4    302.7       302.6       302.5       302.3       302.0       301.6       301.1       300.6       300.1       299.6    
        299.3       299.1       298.9       298.8       298.7       298.6       298.3       297.9       297.3       296.4    
        295.2       293.9       292.4       290.6       288.6       286.2       283.3    
   5    302.7       302.6       302.5       302.2       301.9       301.6       301.1       300.6       300.0       299.6    
        299.3       299.0       298.9       298.8       298.7       298.5       298.3       297.9       297.3       296.4    
        295.2       293.9       292.3       290.6       288.5       286.1       283.3    
   6    302.7       302.6       302.4       302.2       301.9       301.5       301.1       300.5       300.0       299.5    
        299.2       299.0       298.8       298.7       298.6       298.5       298.2       297.8       297.2       296.3    
        295.2       293.8       292.3       290.6       288.5       286.1       283.3    
   7    302.7       302.6       302.4       302.2       301.9       301.5       301.0       300.5       299.9       299.5    
        299.2       298.9       298.8       298.7       298.6       298.4       298.2       297.8       297.2       296.3    
        295.1       293.8       292.3       290.5       288.5       286.1       283.3    
   8    302.6       302.6       302.4       302.2       301.9       301.5       301.0       300.4       299.9       299.4    
        299.1       298.9       298.7       298.6       298.5       298.4       298.1       297.7       297.1       296.2    
        295.1       293.8       292.3       290.5       288.5       286.1       283.3    
   9    302.6       302.6       302.4       302.2       301.8       301.4       301.0       300.4       299.8       299.4    
        299.1       298.8       298.7       298.6       298.5       298.3       298.1       297.7       297.1       296.2    
        295.1       293.8       292.3       290.5       288.5       286.1       283.3    
  10    302.6       302.5       302.4       302.1       301.8       301.4       300.9       300.4       299.8       299.4    
        299.1       298.8       298.7       298.6       298.5       298.3       298.0       297.7       297.1       296.2    
        295.1       293.7       292.2       290.5       288.5       286.1       283.3    
  11    302.6       302.5       302.4       302.1       301.8       301.4       300.9       300.4       299.8       299.4    
        299.1       298.8       298.7       298.6       298.5       298.3       298.0       297.6       297.1       296.2    
        295.0       293.7       292.2       290.5       288.5       286.1       283.3    
  12    302.6       302.5       302.4       302.1       301.8       301.4       300.9       300.4       299.8       299.4    
        299.0       298.8       298.6       298.5       298.4       298.3       298.0       297.6       297.1       296.2    
        295.0       293.7       292.2       290.5       288.5       286.1       283.3    
  13    302.6       302.5       302.4       302.1       301.8       301.4       300.9       300.4       299.8       299.4    
        299.0       298.8       298.6       298.5       298.4       298.3       298.0       297.6       297.1       296.2    
        295.0       293.7       292.2       290.5       288.5       286.1       283.3    
  14    302.6       302.5       302.4       302.1       301.8       301.4       300.9       300.4       299.8       299.4    
        299.0       298.8       298.6       298.5       298.4       298.3       298.0       297.6       297.1       296.2    
        295.0       293.7       292.2       290.5       288.5       286.1       283.3    
  15    302.6       302.5       302.4       302.1       301.8       301.4       300.9       300.4       299.8       299.4    
        299.0       298.8       298.6       298.5       298.4       298.3       298.0       297.6       297.1       296.2    
        295.0       293.7       292.2       290.5       288.5       286.1       283.3    
  16    302.6       302.5       302.4       302.1       301.8       301.4       300.9       300.4       299.8       299.4    
        299.0       298.8       298.6       298.5       298.4       298.3       298.0       297.6       297.1       296.2    
        295.0       293.7       292.2       290.5       288.5       286.1       283.3    
  17    302.6       302.5       302.4       302.1       301.8       301.4       300.9       300.4       299.8       299.4    
        299.1       298.8       298.7       298.6       298.5       298.3       298.0       297.6       297.1       296.2    
        295.0       293.7       292.2       290.5       288.5       286.1       283.3    
  18    302.6       302.5       302.4       302.1       301.8       301.4       300.9       300.4       299.8       299.4    
        299.1       298.8       298.7       298.6       298.5       298.3       298.0       297.7       297.1       296.2    
        295.1       293.7       292.2       290.5       288.5       286.1       283.3    
  19    302.6       302.6       302.4       302.2       301.8       301.4       301.0       300.4       299.8       299.4    
        299.1       298.8       298.7       298.6       298.5       298.3       298.1       297.7       297.1       296.2    
        295.1       293.8       292.3       290.5       288.5       286.1       283.3    
  20    302.6       302.6       302.4       302.2       301.9       301.5       301.0       300.4       299.9       299.4    
        299.1       298.9       298.7       298.6       298.5       298.4       298.1       297.7       297.1       296.2    
        295.1       293.8       292.3       290.5       288.5       286.1       283.3    
  21    302.7       302.6       302.4       302.2       301.9       301.5       301.0       300.5       299.9       299.5    
        299.2       298.9       298.8       298.7       298.6       298.4       298.2       297.8       297.2       296.3    
        295.1       293.8       292.3       290.5       288.5       286.1       283.3    
  22    302.7       302.6       302.4       302.2       301.9       301.5       301.1       300.5       300.0       299.5    
        299.2       299.0       298.8       298.7       298.6       298.5       298.2       297.8       297.2       296.3    
        295.2       293.8       292.3       290.6       288.5       286.1       283.3    
  23    302.7       302.6       302.5       302.2       301.9       301.6       301.1       300.6       300.0       299.6    
        299.3       299.0       298.9       298.8       298.7       298.5       298.3       297.9       297.3       296.4    
        295.2       293.9       292.3       290.6       288.5       286.1       283.3    
  24    302.7       302.6       302.5       302.3       302.0       301.6       301.1       300.6       300.1       299.6    
        299.3       299.1       298.9       298.8       298.7       298.6       298.3       297.9       297.3       296.4    
        295.2       293.9       292.4       290.6       288.6       286.2       283.3    
  25    302.7       302.6       302.5       302.3       302.0       301.6       301.2       300.6       300.1       299.7    
        299.4       299.1       299.0       298.9       298.8       298.6       298.3       297.9       297.4       296.4    
        295.3       293.9       292.4       290.6       288.6       286.2       283.3    
  26    302.7       302.7       302.5       302.3       302.0       301.6       301.2       300.6       300.1       299.7    
        299.4       299.1       299.0       298.9       298.8       298.6       298.4       298.0       297.4       296.5    
        295.3       293.9       292.4       290.6       288.6       286.2       283.3    
  27    302.7       302.7       302.5       302.3       302.0       301.6       301.2       300.7       300.1       299.7    
        299.4       299.2       299.0       298.9       298.8       298.6       298.4       298.0       297.4       296.5    
        295.3       294.0       292.4       290.6       288.6       286.2       283.3    



                       INITIAL HEAD FOR LAYER   2
 READING BINARY ON UNIT   65

            1           2           3           4           5           6           7           8           9          10
           11          12          13          14          15          16          17          18          19          20
           21          22          23          24          25          26          27
 ........................................................................................................................
   1    297.8       297.7       297.6       297.4       297.2       296.9       296.5       296.2       295.8       295.5    
        295.4       295.2       295.1       295.1       295.0       294.9       294.8       294.6       294.3       293.9    
        293.5       293.0       292.6       292.2       291.8       291.5       291.3    
   2    297.8       297.7       297.6       297.4       297.1       296.8       296.5       296.1       295.8       295.5    
        295.3       295.2       295.1       295.0       295.0       294.9       294.8       294.6       294.3       293.9    
        293.4       293.0       292.6       292.1       291.8       291.5       291.2    
   3    297.7       297.7       297.5       297.3       297.1       296.8       296.4       296.0       295.7       295.4    
        295.2       295.1       295.0       294.9       294.9       294.8       294.6       294.5       294.2       293.8    
        293.4       292.9       292.5       292.1       291.7       291.4       291.2    
   4    297.7       297.6       297.5       297.3       297.0       296.7       296.3       295.9       295.5       295.2    
        295.0       294.9       294.8       294.8       294.7       294.6       294.5       294.3       294.0       293.7    
        293.2       292.8       292.4       292.0       291.7       291.4       291.2    
   5    297.7       297.6       297.4       297.2       296.9       296.6       296.1       295.7       295.3       295.0    
        294.8       294.7       294.6       294.5       294.5       294.4       294.2       294.1       293.8       293.5    
        293.1       292.7       292.3       292.0       291.6       291.3       291.1    
   6    297.6       297.5       297.4       297.1       296.8       296.4       296.0       295.5       295.0       294.7    
        294.5       294.3       294.2       294.2       294.1       294.0       293.9       293.7       293.5       293.2    
        292.9       292.6       292.2       291.9       291.5       291.3       291.1    
   7    297.6       297.5       297.3       297.0       296.7       296.2       295.7       295.1       294.6       294.3    
        294.0       293.9       293.8       293.7       293.7       293.6       293.5       293.3       293.1       292.9    
        292.7       292.4       292.1       291.8       291.5       291.2       291.0    
   8    297.5       297.4       297.2       296.9       296.6       296.1       295.5       294.8       294.2       293.7    
        293.5       293.3       293.2       293.1       293.1       293.0       292.9       292.8       292.7       292.6    
        292.4       292.2       292.0       291.7       291.4       291.2       291.0    
   9    297.5       297.4       297.2       296.9       296.5       295.9       295.3       294.5       293.7       293.2    
        292.8       292.6       292.5       292.5       292.4       292.4       292.3       292.2       292.2       292.3    
        292.2       292.1       291.9       291.6       291.4       291.1       290.9    
  10    297.5       297.4       297.2       296.8       296.4       295.9       295.2       294.3       293.4       292.8    
        292.4       292.1       292.0       292.0       291.9       291.8       291.8       291.8       291.9       292.1    
        292.1       292.0       291.8       291.6       291.3       291.1       290.9    
  11    297.5       297.4       297.1       296.8       296.4       295.8       295.1       294.2       293.3       292.5    
        292.1       291.8       291.7       291.6       291.6       291.5       291.5       291.6       291.8       292.0    
        292.1       292.0       291.8       291.6       291.3       291.1       290.9    
  12    297.4       297.3       297.1       296.8       296.4       295.8       295.1       294.2       293.2       292.4    
        291.9       291.7       291.5       291.5       291.4       291.4       291.4       291.5       291.7       291.9    
        292.0       292.0       291.8       291.6       291.3       291.1       290.9    
  13    297.4       297.3       297.1       296.8       296.4       295.8       295.1       294.2       293.2       292.4    
        291.9       291.6       291.5       291.4       291.4       291.3       291.3       291.5       291.7       291.9    
        292.0       292.0       291.8       291.6       291.3       291.1       290.9    
  14    297.4       297.3       297.1       296.8       296.4       295.8       295.1       294.2       293.2       292.4    
        291.9       291.6       291.5       291.4       291.3       291.3       291.3       291.5       291.7       291.9    
        292.0       292.0       291.8       291.6       291.3       291.1       290.9    
  15    297.4       297.3       297.1       296.8       296.4       295.8       295.1       294.2       293.2       292.4    
        291.9       291.6       291.5       291.4       291.4       291.3       291.3       291.5       291.7       291.9    
        292.0       292.0       291.8       291.6       291.3       291.1       290.9    
  16    297.4       297.3       297.1       296.8       296.4       295.8       295.1       294.2       293.2       292.4    
        291.9       291.7       291.5       291.5       291.4       291.4       291.4       291.5       291.7       291.9    
        292.0       292.0       291.8       291.6       291.3       291.1       290.9    
  17    297.5       297.3       297.1       296.8       296.4       295.8       295.1       294.2       293.3       292.5    
        292.1       291.8       291.7       291.6       291.6       291.5       291.5       291.6       291.8       292.0    
        292.1       292.0       291.8       291.6       291.3       291.1       290.9    
  18    297.5       297.4       297.2       296.8       296.4       295.9       295.2       294.3       293.4       292.8    
        292.4       292.1       292.0       292.0       291.9       291.8       291.8       291.8       291.9       292.1    
        292.1       292.0       291.8       291.6       291.3       291.1       290.9    
  19    297.5       297.4       297.2       296.9       296.5       295.9       295.3       294.5       293.7       293.2    
        292.8       292.6       292.5       292.5       292.4       292.4       292.3       292.2       292.2       292.3    
        292.2       292.1       291.9       291.6       291.4       291.1       290.9    
  20    297.5       297.4       297.2       296.9       296.6       296.1       295.5       294.8       294.2       293.7    
        293.5       293.3       293.2       293.1       293.1       293.0       292.9       292.8       292.7       292.6    
        292.4       292.2       292.0       291.7       291.4       291.2       291.0    
  21    297.6       297.5       297.3       297.0       296.7       296.2       295.7       295.1       294.6       294.3    
        294.0       293.9       293.8       293.7       293.7       293.6       293.5       293.3       293.1       292.9    
        292.7       292.4       292.1       291.8       291.5       291.2       291.0    
  22    297.6       297.5       297.4       297.1       296.8       296.4       296.0       295.5       295.0       294.7    
        294.5       294.3       294.2       294.2       294.1       294.0       293.9       293.7       293.5       293.2    
        292.9       292.6       292.2       291.9       291.5       291.3       291.1    
  23    297.7       297.6       297.4       297.2       296.9       296.6       296.1       295.7       295.3       295.0    
        294.8       294.7       294.6       294.5       294.5       294.4       294.2       294.1       293.8       293.5    
        293.1       292.7       292.3       292.0       291.6       291.3       291.1    
  24    297.7       297.6       297.5       297.3       297.0       296.7       296.3       295.9       295.5       295.2    
        295.0       294.9       294.8       294.8       294.7       294.6       294.5       294.3       294.0       293.7    
        293.2       292.8       292.4       292.0       291.7       291.4       291.2    
  25    297.7       297.7       297.5       297.3       297.1       296.8       296.4       296.0       295.7       295.4    
        295.2       295.1       295.0       294.9       294.9       294.8       294.6       294.5       294.2       293.8    
        293.4       292.9       292.5       292.1       291.7       291.4       291.2    
  26    297.8       297.7       297.6       297.4       297.1       296.8       296.5       296.1       295.8       295.5    
        295.3       295.2       295.1       295.0       295.0       294.9       294.8       294.6       294.3       293.9    
        293.4       293.0       292.6       292.1       291.8       291.5       291.2    
  27    297.8       297.7       297.6       297.4       297.2       296.9       296.5       296.2       295.8       295.5    
        295.4       295.2       295.1       295.1       295.0       294.9       294.8       294.6       294.3       293.9    
        293.5       293.0       292.6       292.2       291.8       291.5       291.3    



                       INITIAL HEAD FOR LAYER   3
 READING BINARY ON UNIT   65

            1           2           3           4           5           6           7           8           9          10
           11          12          13          14          15          16          17          18          19          20
           21          22          23          24          25          26          27
 ........................................................................................................................
   1    297.6       297.5       297.4       297.2       297.0       296.7       296.4       296.0       295.7       295.4    
        295.2       295.1       295.0       294.9       294.9       294.8       294.7       294.5       294.2       293.8    
        293.4       293.0       292.6       292.2       291.9       291.7       291.5    
   2    297.6       297.5       297.4       297.2       297.0       296.7       296.3       296.0       295.6       295.3    
        295.2       295.0       294.9       294.9       294.8       294.8       294.6       294.4       294.2       293.8    
        293.4       293.0       292.6       292.2       291.9       291.6       291.5    
   3    297.6       297.5       297.4       297.2       296.9       296.6       296.2       295.9       295.5       295.2    
        295.1       294.9       294.8       294.8       294.7       294.6       294.5       294.3       294.1       293.7    
        293.3       292.9       292.5       292.2       291.9       291.6       291.5    
   4    297.5       297.4       297.3       297.1       296.8       296.5       296.1       295.7       295.3       295.1    
        294.9       294.7       294.7       294.6       294.6       294.5       294.3       294.2       293.9       293.6    
        293.2       292.8       292.4       292.1       291.8       291.6       291.4    
   5    297.5       297.4       297.2       297.0       296.7       296.4       296.0       295.5       295.1       294.8    
        294.6       294.5       294.4       294.4       294.3       294.2       294.1       293.9       293.7       293.4    
        293.0       292.7       292.3       292.0       291.7       291.5       291.4    
   6    297.4       297.3       297.2       296.9       296.6       296.2       295.8       295.3       294.8       294.5    
        294.3       294.1       294.1       294.0       294.0       293.9       293.7       293.6       293.4       293.1    
        292.8       292.5       292.2       291.9       291.7       291.4       291.3    
   7    297.4       297.3       297.1       296.8       296.5       296.0       295.5       294.9       294.4       294.0    
        293.8       293.7       293.6       293.5       293.5       293.4       293.3       293.1       293.0       292.8    
        292.6       292.3       292.1       291.8       291.6       291.4       291.3    
   8    297.3       297.2       297.0       296.7       296.4       295.9       295.3       294.6       293.9       293.4    
        293.1       293.0       292.9       292.8       292.8       292.7       292.6       292.5       292.5       292.4    
        292.3       292.2       292.0       291.7       291.5       291.3       291.2    
   9    297.3       297.2       297.0       296.7       296.3       295.7       295.0       294.2       293.3       292.7    
        292.3       292.1       292.0       291.9       291.8       291.8       291.8       291.8       291.9       292.0    
        292.1       292.0       291.9       291.7       291.5       291.3       291.2    
  10    297.3       297.2       297.0       296.6       296.2       295.6       294.9       294.0       292.9       292.1    
        291.5       291.1       291.0       290.9       290.9       290.9       290.9       291.2       291.5       291.8    
        292.0       291.9       291.8       291.6       291.5       291.3       291.2    
  11    297.3       297.2       296.9       296.6       296.2       295.6       294.9       293.9       292.7       291.7    
        290.8       290.3       290.1       290.0       290.0       290.1       290.3       290.7       291.3       291.7    
        291.9       291.9       291.8       291.6       291.4       291.3       291.2    
  12    297.3       297.2       296.9       296.6       296.2       295.6       294.8       293.8       292.6       291.4    
        290.5       289.7       289.4       289.3       289.3       289.5       289.9       290.5       291.2       291.7    
        291.9       291.9       291.8       291.6       291.4       291.3       291.2    
  13    297.3       297.2       296.9       296.6       296.2       295.6       294.8       293.8       292.6       291.4    
        290.3       289.5       289.1       288.9       289.0       289.2       289.8       290.5       291.1       291.7    
        291.9       291.9       291.8       291.6       291.4       291.3       291.2    
  14    297.3       297.2       296.9       296.6       296.2       295.6       294.8       293.8       292.6       291.4    
        290.3       289.5       289.0       288.8       288.9       289.2       289.8       290.5       291.1       291.7    
        291.9       291.9       291.8       291.6       291.4       291.3       291.2    
  15    297.3       297.2       296.9       296.6       296.2       295.6       294.8       293.8       292.6       291.4    
        290.3       289.5       289.1       288.9       289.0       289.2       289.8       290.5       291.1       291.7    
        291.9       291.9       291.8       291.6       291.4       291.3       291.2    
  16    297.3       297.2       296.9       296.6       296.2       295.6       294.8       293.8       292.6       291.4    
        290.5       289.7       289.4       289.3       289.3       289.5       289.9       290.5       291.2       291.7    
        291.9       291.9       291.8       291.6       291.4       291.3       291.2    
  17    297.3       297.2       296.9       296.6       296.2       295.6       294.9       293.9       292.7       291.7    
        290.8       290.3       290.1       290.0       290.0       290.1       290.3       290.7       291.3       291.7    
        291.9       291.9       291.8       291.6       291.4       291.3       291.2    
  18    297.3       297.2       297.0       296.6       296.2       295.6       294.9       294.0       292.9       292.1    
        291.5       291.1       291.0       290.9       290.9       290.9       290.9       291.2       291.5       291.8    
        292.0       291.9       291.8       291.6       291.5       291.3       291.2    
  19    297.3       297.2       297.0       296.7       296.3       295.7       295.0       294.2       293.3       292.7    
        292.3       292.1       292.0       291.9       291.8       291.8       291.8       291.8       291.9       292.0    
        292.1       292.0       291.9       291.7       291.5       291.3       291.2    
  20    297.3       297.2       297.0       296.7       296.4       295.9       295.3       294.6       293.9       293.4    
        293.1       293.0       292.9       292.8       292.8       292.7       292.6       292.5       292.5       292.4    
        292.3       292.2       292.0       291.7       291.5       291.3       291.2    
  21    297.4       297.3       297.1       296.8       296.5       296.0       295.5       294.9       294.4       294.0    
        293.8       293.7       293.6       293.5       293.5       293.4       293.3       293.1       293.0       292.8    
        292.6       292.3       292.1       291.8       291.6       291.4       291.3    
  22    297.4       297.3       297.2       296.9       296.6       296.2       295.8       295.3       294.8       294.5    
        294.3       294.1       294.1       294.0       294.0       293.9       293.7       293.6       293.4       293.1    
        292.8       292.5       292.2       291.9       291.7       291.4       291.3    
  23    297.5       297.4       297.2       297.0       296.7       296.4       296.0       295.5       295.1       294.8    
        294.6       294.5       294.4       294.4       294.3       294.2       294.1       293.9       293.7       293.4    
        293.0       292.7       292.3       292.0       291.7       291.5       291.4    
  24    297.5       297.4       297.3       297.1       296.8       296.5       296.1       295.7       295.3       295.1    
        294.9       294.7       294.7       294.6       294.6       294.5       294.3       294.2       293.9       293.6    
        293.2       292.8       292.4       292.1       291.8       291.6       291.4    
  25    297.6       297.5       297.4       297.2       296.9       296.6       296.2       295.9       295.5       295.2    
        295.1       294.9       294.8       294.8       294.7       294.6       294.5       294.3       294.1       293.7    
        293.3       292.9       292.5       292.2       291.9       291.6       291.5    
  26    297.6       297.5       297.4       297.2       297.0       296.7       296.3       296.0       295.6       295.3    
        295.2       295.0       294.9       294.9       294.8       294.8       294.6       294.4       294.2       293.8    
        293.4       293.0       292.6       292.2       291.9       291.6       291.5    
  27    297.6       297.5       297.4       297.2       297.0       296.7       296.4       296.0       295.7       295.4    
        295.2       295.1       295.0       294.9       294.9       294.8       294.7       294.5       294.2       293.8    
        293.4       293.0       292.6       292.2       291.9       291.7       291.5    



                       INITIAL HEAD FOR LAYER   4
 READING BINARY ON UNIT   65

            1           2           3           4           5           6           7           8           9          10
           11          12          13          14          15          16          17          18          19          20
           21          22          23          24          25          26          27
 ........................................................................................................................
   1    297.5       297.4       297.3       297.1       296.9       296.6       296.2       295.9       295.5       295.3    
        295.1       295.0       294.9       294.9       294.8       294.7       294.6       294.4       294.1       293.8    
        293.4       293.0       292.6       292.3       292.0       291.8       291.7    
   2    297.5       297.4       297.3       297.1       296.8       296.5       296.2       295.8       295.5       295.2    
        295.1       294.9       294.8       294.8       294.7       294.7       294.5       294.3       294.1       293.7    
        293.3       292.9       292.6       292.3       292.0       291.8       291.6    
   3    297.4       297.4       297.2       297.0       296.8       296.5       296.1       295.7       295.4       295.1    
        294.9       294.8       294.7       294.7       294.6       294.5       294.4       294.2       294.0       293.6    
        293.3       292.9       292.5       292.2       291.9       291.7       291.6    
   4    297.4       297.3       297.2       297.0       296.7       296.4       296.0       295.6       295.2       295.0    
        294.8       294.6       294.6       294.5       294.5       294.4       294.2       294.1       293.8       293.5    
        293.1       292.8       292.4       292.1       291.9       291.7       291.6    
   5    297.3       297.3       297.1       296.9       296.6       296.2       295.8       295.4       295.0       294.7    
        294.5       294.4       294.3       294.2       294.2       294.1       294.0       293.8       293.6       293.3    
        293.0       292.6       292.3       292.1       291.8       291.6       291.5    
   6    297.3       297.2       297.0       296.8       296.5       296.1       295.6       295.1       294.7       294.4    
        294.2       294.0       293.9       293.9       293.8       293.7       293.6       293.5       293.3       293.0    
        292.7       292.5       292.2       292.0       291.7       291.6       291.5    
   7    297.2       297.1       297.0       296.7       296.3       295.9       295.4       294.8       294.2       293.9    
        293.6       293.5       293.4       293.3       293.3       293.2       293.1       293.0       292.8       292.7    
        292.5       292.3       292.1       291.9       291.7       291.5       291.4    
   8    297.2       297.1       296.9       296.6       296.2       295.7       295.1       294.4       293.7       293.2    
        292.9       292.7       292.6       292.5       292.5       292.4       292.3       292.3       292.3       292.3    
        292.2       292.1       292.0       291.8       291.6       291.4       291.4    
   9    297.1       297.0       296.8       296.5       296.1       295.6       294.9       294.0       293.0       292.2    
        291.7       291.4       291.3       291.2       291.2       291.2       291.2       291.4       291.6       291.9    
        292.0       292.0       291.9       291.7       291.5       291.4       291.3    
  10    297.1       297.0       296.8       296.5       296.1       295.5       294.7       293.7       292.5       291.3    
        290.3       289.6       289.4       289.3       289.3       289.4       289.7       290.4       291.1       291.6    
        291.9       291.9       291.8       291.7       291.5       291.4       291.3    
  11    297.1       297.0       296.8       296.5       296.1       295.5       294.7       293.6       292.1       290.5    
        288.7       287.1       286.4       286.2       286.3       286.9       288.1       289.6       290.7       291.5    
        291.8       291.9       291.8       291.7       291.5       291.4       291.3    
  12    297.1       297.0       296.8       296.5       296.0       295.4       294.6       293.5       292.0       289.9    
        287.3       283.9       281.5       280.8       281.4       283.7       286.7       289.0       290.6       291.4    
        291.8       291.8       291.8       291.7       291.5       291.4       291.3    
  13    297.1       297.0       296.8       296.5       296.0       295.4       294.6       293.5       291.9       289.8    
        286.6       281.6       275.2       270.9       275.1       281.3       286.1       288.9       290.5       291.4    
        291.8       291.8       291.8       291.7       291.5       291.4       291.3    
  14    297.1       297.0       296.8       296.5       296.0       295.4       294.6       293.5       291.9       289.7    
        286.5       280.9       271.0       251.2       270.9       280.6       286.0       288.8       290.5       291.4    
        291.8       291.8       291.8       291.7       291.5       291.4       291.3    
  15    297.1       297.0       296.8       296.5       296.0       295.4       294.6       293.5       291.9       289.8    
        286.6       281.6       275.2       270.9       275.1       281.3       286.1       288.9       290.5       291.4    
        291.8       291.8       291.8       291.7       291.5       291.4       291.3    
  16    297.1       297.0       296.8       296.5       296.0       295.4       294.6       293.5       292.0       289.9    
        287.3       283.9       281.5       280.8       281.4       283.7       286.7       289.0       290.6       291.4    
        291.8       291.8       291.8       291.7       291.5       291.4       291.3    
  17    297.1       297.0       296.8       296.5       296.1       295.5       294.7       293.6       292.1       290.5    
        288.7       287.1       286.4       286.2       286.3       286.9       288.1       289.6       290.7       291.5    
        291.8       291.9       291.8       291.7       291.5       291.4       291.3    
  18    297.1       297.0       296.8       296.5       296.1       295.5       294.7       293.7       292.5       291.3    
        290.3       289.6       289.4       289.3       289.3       289.4       289.7       290.4       291.1       291.6    
        291.9       291.9       291.8       291.7       291.5       291.4       291.3    
  19    297.1       297.0       296.8       296.5       296.1       295.6       294.9       294.0       293.0       292.2    
        291.7       291.4       291.3       291.2       291.2       291.2       291.2       291.4       291.6       291.9    
        292.0       292.0       291.9       291.7       291.5       291.4       291.3    
  20    297.2       297.1       296.9       296.6       296.2       295.7       295.1       294.4       293.7       293.2    
        292.9       292.7       292.6       292.5       292.5       292.4       292.3       292.3       292.3       292.3    
        292.2       292.1       292.0       291.8       291.6       291.4       291.4    
  21    297.2       297.1       297.0       296.7       296.3       295.9       295.4       294.8       294.2       293.9    
        293.6       293.5       293.4       293.3       293.3       293.2       293.1       293.0       292.8       292.7    
        292.5       292.3       292.1       291.9       291.7       291.5       291.4    
  22    297.3       297.2       297.0       296.8       296.5       296.1       295.6       295.1       294.7       294.4    
        294.2       294.0       293.9       293.9       293.8       293.7       293.6       293.5       293.3       293.0    
        292.7       292.5       292.2       292.0       291.7       291.6       291.5    
  23    297.3       297.3       297.1       296.9       296.6       296.2       295.8       295.4       295.0       294.7    
        294.5       294.4       294.3       294.2       294.2       294.1       294.0       293.8       293.6       293.3    
        293.0       292.6       292.3       292.1       291.8       291.6       291.5    
  24    297.4       297.3       297.2       297.0       296.7       296.4       296.0       295.6       295.2       295.0    
        294.8       294.6       294.6       294.5       294.5       294.4       294.2       294.1       293.8       293.5    
        293.1       292.8       292.4       292.1       291.9       291.7       291.6    
  25    297.4       297.4       297.2       297.0       296.8       296.5       296.1       295.7       295.4       295.1    
        294.9       294.8       294.7       294.7       294.6       294.5       294.4       294.2       294.0       293.6    
        293.3       292.9       292.5       292.2       291.9       291.7       291.6    
  26    297.5       297.4       297.3       297.1       296.8       296.5       296.2       295.8       295.5       295.2    
        295.1       294.9       294.8       294.8       294.7       294.7       294.5       294.3       294.1       293.7    
        293.3       292.9       292.6       292.3       292.0       291.8       291.6    
  27    297.5       297.4       297.3       297.1       296.9       296.6       296.2       295.9       295.5       295.3    
        295.1       295.0       294.9       294.9       294.8       294.7       294.6       294.4       294.1       293.8    
        293.4       293.0       292.6       292.3       292.0       291.8       291.7    



                       INITIAL HEAD FOR LAYER   5
 READING BINARY ON UNIT   65

            1           2           3           4           5           6           7           8           9          10
           11          12          13          14          15          16          17          18          19          20
           21          22          23          24          25          26          27
 ........................................................................................................................
   1    297.4       297.4       297.2       297.0       296.8       296.5       296.2       295.8       295.5       295.2    
        295.1       294.9       294.9       294.8       294.8       294.7       294.5       294.4       294.1       293.7    
        293.4       293.0       292.6       292.3       292.0       291.8       291.7    
   2    297.4       297.3       297.2       297.0       296.8       296.5       296.2       295.8       295.4       295.2    
        295.0       294.9       294.8       294.7       294.7       294.6       294.5       294.3       294.1       293.7    
        293.3       292.9       292.6       292.3       292.0       291.8       291.7    
   3    297.4       297.3       297.2       297.0       296.7       296.4       296.1       295.7       295.3       295.1    
        294.9       294.8       294.7       294.6       294.6       294.5       294.4       294.2       293.9       293.6    
        293.2       292.9       292.5       292.2       292.0       291.8       291.7    
   4    297.3       297.3       297.1       296.9       296.6       296.3       295.9       295.5       295.2       294.9    
        294.7       294.6       294.5       294.5       294.4       294.3       294.2       294.0       293.8       293.5    
        293.1       292.8       292.4       292.2       291.9       291.7       291.6    
   5    297.3       297.2       297.1       296.8       296.5       296.2       295.8       295.3       294.9       294.6    
        294.5       294.3       294.2       294.2       294.1       294.1       293.9       293.8       293.5       293.2    
        292.9       292.6       292.3       292.1       291.9       291.7       291.6    
   6    297.2       297.1       297.0       296.7       296.4       296.0       295.6       295.1       294.6       294.3    
        294.1       293.9       293.9       293.8       293.8       293.7       293.6       293.4       293.2       293.0    
        292.7       292.5       292.2       292.0       291.8       291.6       291.5    
   7    297.2       297.1       296.9       296.6       296.3       295.8       295.3       294.7       294.2       293.8    
        293.6       293.4       293.3       293.3       293.2       293.1       293.0       292.9       292.8       292.6    
        292.5       292.3       292.1       291.9       291.7       291.6       291.5    
   8    297.1       297.0       296.8       296.5       296.1       295.6       295.0       294.3       293.6       293.1    
        292.8       292.6       292.5       292.5       292.4       292.3       292.3       292.2       292.2       292.2    
        292.2       292.1       292.0       291.8       291.6       291.5       291.4    
   9    297.1       297.0       296.8       296.5       296.1       295.5       294.8       293.9       292.9       292.2    
        291.7       291.5       291.4       291.3       291.3       291.2       291.2       291.3       291.5       291.8    
        291.9       291.9       291.9       291.7       291.6       291.5       291.4    
  10    297.1       297.0       296.8       296.4       296.0       295.4       294.6       293.6       292.4       291.4    
        290.7       290.4       290.2       290.1       290.1       290.1       290.2       290.5       291.0       291.5    
        291.8       291.9       291.8       291.7       291.6       291.4       291.4    
  11    297.1       297.0       296.8       296.4       296.0       295.4       294.6       293.5       292.2       290.9    
        290.0       289.4       289.1       289.1       289.0       289.1       289.4       290.0       290.8       291.4    
        291.7       291.8       291.8       291.7       291.6       291.4       291.4    
  12    297.1       297.0       296.7       296.4       296.0       295.4       294.6       293.4       292.0       290.6    
        289.5       288.7       288.3       288.2       288.2       288.4       289.0       289.8       290.6       291.4    
        291.7       291.8       291.8       291.7       291.5       291.4       291.4    
  13    297.1       297.0       296.7       296.4       296.0       295.4       294.5       293.4       292.0       290.6    
        289.3       288.4       288.0       287.8       287.9       288.2       288.8       289.7       290.6       291.3    
        291.7       291.8       291.8       291.7       291.5       291.4       291.4    
  14    297.1       297.0       296.7       296.4       296.0       295.4       294.5       293.4       292.0       290.5    
        289.3       288.4       287.9       287.7       287.8       288.1       288.8       289.7       290.6       291.3    
        291.7       291.8       291.8       291.7       291.5       291.4       291.4    
  15    297.1       297.0       296.7       296.4       296.0       295.4       294.5       293.4       292.0       290.6    
        289.3       288.4       288.0       287.8       287.9       288.2       288.8       289.7       290.6       291.3    
        291.7       291.8       291.8       291.7       291.5       291.4       291.4    
  16    297.1       297.0       296.7       296.4       296.0       295.4       294.6       293.4       292.0       290.6    
        289.5       288.7       288.3       288.2       288.2       288.4       289.0       289.8       290.6       291.4    
        291.7       291.8       291.8       291.7       291.5       291.4       291.4    
  17    297.1       297.0       296.8       296.4       296.0       295.4       294.6       293.5       292.2       290.9    
        290.0       289.4       289.1       289.1       289.0       289.1       289.4       290.0       290.8       291.4    
        291.7       291.8       291.8       291.7       291.6       291.4       291.4    
  18    297.1       297.0       296.8       296.4       296.0       295.4       294.6       293.6       292.4       291.4    
        290.7       290.4       290.2       290.1       290.1       290.1       290.2       290.5       291.0       291.5    
        291.8       291.9       291.8       291.7       291.6       291.4       291.4    
  19    297.1       297.0       296.8       296.5       296.1       295.5       294.8       293.9       292.9       292.2    
        291.7       291.5       291.4       291.3       291.3       291.2       291.2       291.3       291.5       291.8    
        291.9       291.9       291.9       291.7       291.6       291.5       291.4    
  20    297.1       297.0       296.8       296.5       296.1       295.6       295.0       294.3       293.6       293.1    
        292.8       292.6       292.5       292.5       292.4       292.3       292.3       292.2       292.2       292.2    
        292.2       292.1       292.0       291.8       291.6       291.5       291.4    
  21    297.2       297.1       296.9       296.6       296.3       295.8       295.3       294.7       294.2       293.8    
        293.6       293.4       293.3       293.3       293.2       293.1       293.0       292.9       292.8       292.6    
        292.5       292.3       292.1       291.9       291.7       291.6       291.5    
  22    297.2       297.1       297.0       296.7       296.4       296.0       295.6       295.1       294.6       294.3    
        294.1       293.9       293.9       293.8       293.8       293.7       293.6       293.4       293.2       293.0    
        292.7       292.5       292.2       292.0       291.8       291.6       291.5    
  23    297.3       297.2       297.1       296.8       296.5       296.2       295.8       295.3       294.9       294.6    
        294.5       294.3       294.2       294.2       294.1       294.1       293.9       293.8       293.5       293.2    
        292.9       292.6       292.3       292.1       291.9       291.7       291.6    
  24    297.3       297.3       297.1       296.9       296.6       296.3       295.9       295.5       295.2       294.9    
        294.7       294.6       294.5       294.5       294.4       294.3       294.2       294.0       293.8       293.5    
        293.1       292.8       292.4       292.2       291.9       291.7       291.6    
  25    297.4       297.3       297.2       297.0       296.7       296.4       296.1       295.7       295.3       295.1    
        294.9       294.8       294.7       294.6       294.6       294.5       294.4       294.2       293.9       293.6    
        293.2       292.9       292.5       292.2       292.0       291.8       291.7    
  26    297.4       297.3       297.2       297.0       296.8       296.5       296.2       295.8       295.4       295.2    
        295.0       294.9       294.8       294.7       294.7       294.6       294.5       294.3       294.1       293.7    
        293.3       292.9       292.6       292.3       292.0       291.8       291.7    
  27    297.4       297.4       297.2       297.0       296.8       296.5       296.2       295.8       295.5       295.2    
        295.1       294.9       294.9       294.8       294.8       294.7       294.5       294.4       294.1       293.7    
        293.4       293.0       292.6       292.3       292.0       291.8       291.7    

 OUTPUT CONTROL IS SPECIFIED ONLY AT TIME STEPS FOR WHICH OUTPUT IS DESIRED
 COMPACT CELL-BY-CELL BUDGET FILES WILL BE WRITTEN
 AUXILIARY DATA WILL BE SAVED IN CELL-BY-CELL BUDGET FILES
 HEAD PRINT FORMAT CODE IS   4    DRAWDOWN PRINT FORMAT CODE IS   4
 HEADS WILL BE SAVED ON UNIT   32    DRAWDOWNS WILL BE SAVED ON UNIT    0

 BCF -- BLOCK-CENTERED FLOW PACKAGE, VERSION 7, 5/2/2005
         INPUT READ FROM UNIT 11
 TRANSIENT SIMULATION
 CELL-BY-CELL FLOWS WILL BE SAVED ON UNIT 34
 HEAD AT CELLS THAT CONVERT TO DRY=  0.10000E+31
 WETTING CAPABILITY IS NOT ACTIVE
      LAYER  LAYER-TYPE CODE     INTERBLOCK T
      --------------------------------------------
         1            1          0 -- HARMONIC    
         2            0          0 -- HARMONIC    
         3            0          0 -- HARMONIC    
         4            0          0 -- HARMONIC    
         5            0          0 -- HARMONIC    

 COLUMN TO ROW ANISOTROPY =   1.00000    

     PRIMARY STORAGE COEF =  0.200000     FOR LAYER   1

    HYD. COND. ALONG ROWS =   50.0000     FOR LAYER   1

 VERT HYD COND /THICKNESS =  5.000000E-04 FOR LAYER   1

     PRIMARY STORAGE COEF =  1.000000E-04 FOR LAYER   2

     TRANSMIS. ALONG ROWS =   1250.00     FOR LAYER   2

 VERT HYD COND /THICKNESS =  1.000000E-02 FOR LAYER   2

     PRIMARY STORAGE COEF =  1.000000E-04 FOR LAYER   3

     TRANSMIS. ALONG ROWS =   1250.00     FOR LAYER   3

 VERT HYD COND /THICKNESS =  1.000000E-02 FOR LAYER   3

     PRIMARY STORAGE COEF =  1.000000E-04 FOR LAYER   4

     TRANSMIS. ALONG ROWS =   1250.00     FOR LAYER   4

 VERT HYD COND /THICKNESS =  1.000000E-02 FOR LAYER   4

     PRIMARY STORAGE COEF =  1.000000E-04 FOR LAYER   5

     TRANSMIS. ALONG ROWS =   1250.00     FOR LAYER   5

 WEL -- WELL PACKAGE, VERSION 7, 5/2/2005 INPUT READ FROM UNIT   14
 No named parameters
 MAXIMUM OF      2 ACTIVE WELLS AT ONE TIME
 CELL-BY-CELL FLOWS WILL BE SAVED ON UNIT   34
 AUXILIARY WELL VARIABLE: IFACE           


     0 Well parameters

 RIV -- RIVER PACKAGE, VERSION 7, 5/2/2005 INPUT READ FROM UNIT   16
 No named parameters
 MAXIMUM OF     27 ACTIVE RIVER REACHES AT ONE TIME
 CELL-BY-CELL FLOWS WILL BE SAVED ON UNIT   34
 AUXILIARY RIVER VARIABLE: IFACE           


     0 River parameters

 RCH -- RECHARGE PACKAGE, VERSION 7, 5/2/2005 INPUT READ FROM UNIT   13
 No named parameters
 OPTION 1 -- RECHARGE TO TOP LAYER
 CELL-BY-CELL FLOWS WILL BE SAVED ON UNIT   34


     0 Recharge parameters

 PCG -- CONJUGATE-GRADIENT SOLUTION PACKAGE, VERSION 7, 5/2/2005
 MAXIMUM OF     15 CALLS OF SOLUTION ROUTINE
 MAXIMUM OF     20 INTERNAL ITERATIONS PER CALL TO SOLUTION ROUTINE
 MATRIX PRECONDITIONING TYPE :    1



                                    SOLUTION BY THE CONJUGATE-GRADIENT METHOD
                                   -------------------------------------------
                    MAXIMUM NUMBER OF CALLS TO PCG ROUTINE =       15
                        MAXIMUM ITERATIONS PER CALL TO PCG =       20
                               MATRIX PRECONDITIONING TYPE =        1
        RELAXATION FACTOR (ONLY USED WITH PRECOND. TYPE 1) =    0.10000E+01
 PARAMETER OF POLYNOMIAL PRECOND. = 2 (2) OR IS CALCULATED :        2
                         HEAD CHANGE CRITERION FOR CLOSURE =    0.10000E-03
                     RESIDUAL CHANGE CRITERION FOR CLOSURE =    0.10000E+04
            PCG HEAD AND RESIDUAL CHANGE PRINTOUT INTERVAL =        1
     PRINTING FROM SOLVER IS LIMITED(1) OR SUPPRESSED (>1) =        0
                                         DAMPING PARAMETER =    0.10000E+01
1
                            STRESS PERIOD NO.    1, LENGTH =   182500.0    
                            -----------------------------------------------

                              NUMBER OF TIME STEPS =     1

                               MULTIPLIER FOR DELT =     1.000

                            INITIAL TIME STEP SIZE =   182500.0    

 WELL NO.  LAYER   ROW   COL   STRESS RATE         IFACE           
 ------------------------------------------------------------------
      1      4     14     14     -0.8000E+05       0.000    

      1 WELL 

 REACH NO.  LAYER   ROW   COL     STAGE      CONDUCTANCE     BOTTOM EL.         IFACE           
 -----------------------------------------------------------------------------------------------
      1      1      1     27       280.0           3200.           275.0           6.000    
      2      1      2     27       280.0           3200.           275.0           6.000    
      3      1      3     27       280.0           3200.           275.0           6.000    
      4      1      4     27       280.0           3200.           275.0           6.000    
      5      1      5     27       280.0           3200.           275.0           6.000    
      6      1      6     27       280.0           3200.           275.0           6.000    
      7      1      7     27       280.0           3200.           275.0           6.000    
      8      1      8     27       280.0           3200.           275.0           6.000    
      9      1      9     27       280.0           2400.           275.0           6.000    
     10      1     10     27       280.0           1600.           275.0           6.000    
     11      1     11     27       280.0           1200.           275.0           6.000    
     12      1     12     27       280.0           800.0           275.0           6.000    
     13      1     13     27       280.0           480.0           275.0           6.000    
     14      1     14     27       280.0           320.0           275.0           6.000    
     15      1     15     27       280.0           480.0           275.0           6.000    
     16      1     16     27       280.0           800.0           275.0           6.000    
     17      1     17     27       280.0           1200.           275.0           6.000    
     18      1     18     27       280.0           1600.           275.0           6.000    
     19      1     19     27       280.0           2400.           275.0           6.000    
     20      1     20     27       280.0           3200.           275.0           6.000    
     21      1     21     27       280.0           3200.           275.0           6.000    
     22      1     22     27       280.0           3200.           275.0           6.000    
     23      1     23     27       280.0           3200.           275.0           6.000    
     24      1     24     27       280.0           3200.           275.0           6.000    
     25      1     25     27       280.0           3200.           275.0           6.000    
     26      1     26     27       280.0           3200.           275.0           6.000    
     27      1     27     27       280.0           3200.           275.0           6.000    

     27 RIVER REACHES

                 RECHARGE =  4.500000E-03
 
 SOLVING FOR HEAD 


     2 CALLS TO PCG ROUTINE FOR TIME STEP   1 IN STRESS PERIOD    1
     6 TOTAL ITERATIONS

 MAXIMUM HEAD CHANGE FOR EACH ITERATION (1 INDICATES THE FIRST INNER ITERATION):

    HEAD CHANGE    HEAD CHANGE    HEAD CHANGE    HEAD CHANGE    HEAD CHANGE 
   LAYER,ROW,COL  LAYER,ROW,COL  LAYER,ROW,COL  LAYER,ROW,COL  LAYER,ROW,COL
 ---------------------------------------------------------------------------
  1 -0.1067E-03  0  0.2082E-03  0  0.1407E-03  0  0.1026E-03  0 -0.7998E-04
   (  4, 25,  1)  (  1, 27,  1)  (  5, 27,  2)  (  5,  4, 10)  (  4, 10, 21)
  1 -0.5333E-04
   (  5,  4, 23)

 MAXIMUM RESIDUAL FOR EACH ITERATION (1 INDICATES THE FIRST INNER ITERATION):

    RESIDUAL       RESIDUAL       RESIDUAL       RESIDUAL       RESIDUAL    
   LAYER,ROW,COL  LAYER,ROW,COL  LAYER,ROW,COL  LAYER,ROW,COL  LAYER,ROW,COL
 ---------------------------------------------------------------------------
  1  -1.755      0  -1.145      0 -0.8454      0 -0.6937      0 -0.5006    
   (  1, 14,  8)  (  1, 14,  8)  (  1, 14,  8)  (  1, 14,  8)  (  1, 14,  8)
  1 -0.4872    
   (  1, 14,  8)



 OUTPUT CONTROL FOR STRESS PERIOD    1   TIME STEP   1
    PRINT HEAD FOR ALL LAYERS
    SAVE HEAD FOR ALL LAYERS
    PRINT BUDGET
    SAVE BUDGET
 UBDSV1 SAVING "         STORAGE" ON UNIT  34 AT TIME STEP  1, STRESS PERIOD   1
 UBDSV2 SAVING "   CONSTANT HEAD" ON UNIT  34 AT TIME STEP  1, STRESS PERIOD   1
 UBDSV1 SAVING "FLOW RIGHT FACE " ON UNIT  34 AT TIME STEP  1, STRESS PERIOD   1
 UBDSV1 SAVING "FLOW FRONT FACE " ON UNIT  34 AT TIME STEP  1, STRESS PERIOD   1
 UBDSV1 SAVING "FLOW LOWER FACE " ON UNIT  34 AT TIME STEP  1, STRESS PERIOD   1
 UBDSV4 SAVING "           WELLS" ON UNIT  34 AT TIME STEP  1, STRESS PERIOD   1
 UBDSV4 SAVING "   RIVER LEAKAGE" ON UNIT  34 AT TIME STEP  1, STRESS PERIOD   1
 UBDSV3 SAVING "        RECHARGE" ON UNIT  34 AT TIME STEP  1, STRESS PERIOD   1
1
              HEAD IN LAYER   1 AT END OF TIME STEP   1 IN STRESS PERIOD    1
  ---------------------------------------------------------------------------

           1       2       3       4       5       6       7       8       9      10      11      12      13      14      15
          16      17      18      19      20      21      22      23      24      25      26      27
 ...........................................................................................................................
   1   302.74  302.66  302.52  302.30  302.00  301.63  301.18  300.66  300.13  299.70  299.39  299.15  299.00  298.90  298.80
       298.63  298.37  297.98  297.39  296.47  295.29  293.95  292.41  290.64  288.58  286.17  283.31
   2   302.73  302.66  302.51  302.29  301.99  301.62  301.17  300.65  300.11  299.69  299.38  299.14  298.98  298.89  298.78
       298.62  298.35  297.97  297.37  296.46  295.28  293.94  292.40  290.63  288.58  286.17  283.31
   3   302.72  302.65  302.50  302.28  301.98  301.61  301.16  300.63  300.09  299.67  299.35  299.12  298.96  298.86  298.76
       298.60  298.33  297.94  297.35  296.44  295.27  293.93  292.39  290.62  288.57  286.16  283.31
   4   302.71  302.63  302.48  302.26  301.96  301.58  301.13  300.60  300.06  299.64  299.32  299.08  298.93  298.83  298.73
       298.56  298.30  297.91  297.32  296.41  295.24  293.90  292.37  290.61  288.56  286.15  283.30
   5   302.69  302.62  302.46  302.24  301.93  301.55  301.10  300.56  300.02  299.60  299.28  299.04  298.88  298.79  298.68
       298.52  298.26  297.87  297.28  296.37  295.21  293.87  292.35  290.59  288.54  286.14  283.30
   6   302.67  302.60  302.44  302.21  301.91  301.52  301.06  300.52  299.97  299.55  299.23  298.99  298.83  298.73  298.63
       298.47  298.21  297.82  297.23  296.33  295.17  293.84  292.32  290.56  288.52  286.13  283.29
   7   302.66  302.58  302.42  302.19  301.88  301.49  301.02  300.47  299.92  299.49  299.17  298.94  298.78  298.68  298.58
       298.42  298.15  297.77  297.18  296.28  295.13  293.81  292.29  290.54  288.51  286.12  283.28
   8   302.64  302.56  302.41  302.17  301.85  301.46  300.98  300.43  299.88  299.44  299.12  298.88  298.73  298.63  298.53
       298.36  298.10  297.71  297.13  296.24  295.09  293.78  292.27  290.52  288.49  286.11  283.28
   9   302.63  302.55  302.39  302.16  301.84  301.44  300.96  300.40  299.84  299.40  299.08  298.84  298.69  298.59  298.48
       298.32  298.06  297.67  297.09  296.21  295.06  293.76  292.25  290.51  288.48  286.10  283.28
  10   302.63  302.55  302.39  302.15  301.83  301.43  300.95  300.38  299.82  299.38  299.06  298.82  298.66  298.56  298.46
       298.30  298.04  297.65  297.08  296.19  295.05  293.75  292.24  290.50  288.48  286.10  283.27
  11   302.63  302.55  302.39  302.15  301.83  301.42  300.94  300.38  299.81  299.37  299.05  298.81  298.65  298.55  298.45
       298.29  298.03  297.64  297.07  296.19  295.05  293.74  292.24  290.50  288.48  286.10  283.27
  12   302.63  302.55  302.39  302.15  301.83  301.42  300.94  300.37  299.81  299.37  299.05  298.81  298.65  298.55  298.45
       298.28  298.02  297.64  297.06  296.18  295.04  293.74  292.24  290.50  288.48  286.10  283.27
  13   302.63  302.55  302.39  302.15  301.82  301.42  300.94  300.37  299.81  299.37  299.05  298.80  298.65  298.55  298.45
       298.28  298.02  297.64  297.06  296.18  295.04  293.74  292.24  290.50  288.48  286.10  283.27
  14   302.63  302.55  302.39  302.15  301.82  301.42  300.94  300.37  299.81  299.37  299.04  298.80  298.65  298.55  298.45
       298.28  298.02  297.64  297.06  296.18  295.04  293.74  292.24  290.50  288.48  286.10  283.27
  15   302.63  302.55  302.39  302.15  301.82  301.42  300.94  300.37  299.81  299.37  299.05  298.80  298.65  298.55  298.45
       298.28  298.02  297.64  297.06  296.18  295.04  293.74  292.24  290.50  288.48  286.10  283.27
  16   302.63  302.55  302.39  302.15  301.83  301.42  300.94  300.37  299.81  299.37  299.05  298.81  298.65  298.55  298.45
       298.28  298.02  297.64  297.06  296.18  295.04  293.74  292.24  290.50  288.48  286.10  283.27
  17   302.63  302.55  302.39  302.15  301.83  301.42  300.94  300.38  299.81  299.37  299.05  298.81  298.65  298.55  298.45
       298.29  298.03  297.64  297.07  296.19  295.05  293.74  292.24  290.50  288.48  286.10  283.27
  18   302.63  302.55  302.39  302.15  301.83  301.43  300.95  300.38  299.82  299.38  299.06  298.82  298.66  298.56  298.46
       298.30  298.04  297.65  297.08  296.19  295.05  293.75  292.24  290.50  288.48  286.10  283.27
  19   302.63  302.55  302.39  302.16  301.84  301.44  300.96  300.40  299.84  299.40  299.08  298.84  298.69  298.59  298.48
       298.32  298.06  297.67  297.09  296.21  295.06  293.76  292.25  290.51  288.48  286.10  283.28
  20   302.64  302.56  302.41  302.17  301.85  301.46  300.98  300.43  299.88  299.44  299.12  298.88  298.73  298.63  298.53
       298.36  298.10  297.71  297.13  296.24  295.09  293.78  292.27  290.52  288.49  286.11  283.28
  21   302.66  302.58  302.42  302.19  301.88  301.49  301.02  300.47  299.92  299.49  299.17  298.94  298.78  298.68  298.58
       298.42  298.15  297.77  297.18  296.28  295.13  293.81  292.29  290.54  288.51  286.12  283.28
  22   302.67  302.60  302.44  302.21  301.91  301.52  301.06  300.52  299.97  299.55  299.23  298.99  298.83  298.73  298.63
       298.47  298.21  297.82  297.23  296.33  295.17  293.84  292.32  290.56  288.52  286.13  283.29
  23   302.69  302.62  302.46  302.24  301.93  301.55  301.10  300.56  300.02  299.60  299.28  299.04  298.88  298.79  298.68
       298.52  298.26  297.87  297.28  296.37  295.21  293.87  292.35  290.59  288.54  286.14  283.30
  24   302.71  302.63  302.48  302.26  301.96  301.58  301.13  300.60  300.06  299.64  299.32  299.08  298.93  298.83  298.73
       298.56  298.30  297.91  297.32  296.41  295.24  293.90  292.37  290.61  288.56  286.15  283.30
  25   302.72  302.65  302.50  302.28  301.98  301.61  301.16  300.63  300.09  299.67  299.35  299.12  298.96  298.86  298.76
       298.60  298.33  297.94  297.35  296.44  295.27  293.93  292.39  290.62  288.57  286.16  283.31
  26   302.73  302.66  302.51  302.29  301.99  301.62  301.17  300.65  300.11  299.69  299.38  299.14  298.98  298.89  298.78
       298.62  298.35  297.97  297.37  296.46  295.28  293.94  292.40  290.63  288.58  286.17  283.31
  27   302.74  302.66  302.52  302.30  302.00  301.63  301.18  300.66  300.13  299.70  299.39  299.15  299.00  298.90  298.80
       298.63  298.37  297.98  297.39  296.47  295.29  293.95  292.41  290.64  288.58  286.17  283.31
1
              HEAD IN LAYER   2 AT END OF TIME STEP   1 IN STRESS PERIOD    1
  ---------------------------------------------------------------------------

           1       2       3       4       5       6       7       8       9      10      11      12      13      14      15
          16      17      18      19      20      21      22      23      24      25      26      27
 ...........................................................................................................................
   1   297.79  297.73  297.60  297.41  297.17  296.88  296.54  296.16  295.81  295.55  295.36  295.23  295.14  295.09  295.03
       294.94  294.80  294.61  294.33  293.93  293.48  293.03  292.58  292.17  291.78  291.47  291.26
   2   297.78  297.71  297.58  297.39  297.14  296.84  296.50  296.12  295.76  295.50  295.31  295.18  295.09  295.03  294.98
       294.89  294.75  294.56  294.28  293.89  293.44  292.99  292.56  292.14  291.76  291.45  291.25
   3   297.75  297.68  297.55  297.35  297.09  296.78  296.42  296.03  295.66  295.40  295.21  295.07  294.98  294.93  294.87
       294.78  294.65  294.45  294.18  293.80  293.36  292.93  292.51  292.10  291.73  291.42  291.22
   4   297.71  297.64  297.49  297.28  297.01  296.68  296.31  295.89  295.51  295.23  295.04  294.90  294.81  294.76  294.70
       294.62  294.48  294.29  294.03  293.66  293.24  292.83  292.43  292.04  291.68  291.38  291.18
   5   297.66  297.58  297.43  297.21  296.91  296.56  296.15  295.70  295.29  295.00  294.80  294.66  294.57  294.52  294.46
       294.38  294.24  294.06  293.81  293.47  293.09  292.71  292.33  291.96  291.62  291.32  291.13
   6   297.60  297.52  297.36  297.12  296.80  296.41  295.95  295.45  295.00  294.69  294.48  294.33  294.24  294.19  294.13
       294.05  293.92  293.75  293.52  293.22  292.89  292.55  292.21  291.87  291.54  291.26  291.08
   7   297.55  297.46  297.29  297.02  296.67  296.24  295.72  295.15  294.63  294.27  294.04  293.89  293.80  293.74  293.69
       293.60  293.48  293.33  293.14  292.92  292.66  292.39  292.09  291.78  291.47  291.21  291.03
   8   297.50  297.41  297.22  296.94  296.55  296.07  295.48  294.80  294.17  293.74  293.47  293.30  293.20  293.15  293.09
       293.02  292.91  292.80  292.68  292.57  292.41  292.21  291.97  291.69  291.41  291.15  290.98
   9   297.47  297.37  297.18  296.88  296.47  295.94  295.28  294.49  293.72  293.17  292.84  292.64  292.54  292.48  292.43
       292.36  292.28  292.23  292.23  292.26  292.22  292.09  291.88  291.63  291.36  291.12  290.95
  10   297.46  297.36  297.16  296.85  296.42  295.87  295.17  294.31  293.42  292.77  292.37  292.13  292.01  291.95  291.90
       291.85  291.81  291.83  291.94  292.07  292.11  292.02  291.84  291.60  291.34  291.10  290.93
  11   297.45  297.35  297.15  296.83  296.40  295.84  295.12  294.22  293.27  292.55  292.08  291.81  291.69  291.63  291.58
       291.53  291.52  291.60  291.78  291.99  292.06  291.99  291.82  291.59  291.33  291.10  290.93
  12   297.45  297.35  297.14  296.83  296.40  295.83  295.10  294.18  293.20  292.44  291.95  291.66  291.52  291.46  291.41
       291.37  291.39  291.50  291.72  291.95  292.04  291.98  291.81  291.58  291.33  291.09  290.93
  13   297.45  297.35  297.14  296.83  296.39  295.82  295.09  294.17  293.18  292.41  291.91  291.61  291.47  291.40  291.36
       291.32  291.35  291.47  291.70  291.94  292.03  291.97  291.81  291.58  291.33  291.09  290.93
  14   297.45  297.35  297.14  296.83  296.39  295.82  295.09  294.17  293.18  292.41  291.90  291.60  291.46  291.39  291.35
       291.31  291.34  291.47  291.69  291.94  292.03  291.97  291.81  291.58  291.33  291.09  290.92
  15   297.45  297.35  297.14  296.83  296.39  295.82  295.09  294.17  293.18  292.41  291.91  291.61  291.47  291.40  291.36
       291.32  291.35  291.47  291.70  291.94  292.03  291.97  291.81  291.58  291.33  291.09  290.93
  16   297.45  297.35  297.14  296.83  296.40  295.83  295.10  294.18  293.20  292.44  291.95  291.66  291.52  291.46  291.41
       291.37  291.39  291.50  291.72  291.95  292.04  291.98  291.81  291.58  291.33  291.09  290.93
  17   297.45  297.35  297.15  296.83  296.40  295.84  295.12  294.22  293.27  292.55  292.08  291.81  291.69  291.63  291.58
       291.53  291.52  291.60  291.78  291.99  292.06  291.99  291.82  291.59  291.33  291.10  290.93
  18   297.46  297.36  297.16  296.85  296.42  295.87  295.17  294.31  293.42  292.77  292.37  292.13  292.01  291.95  291.90
       291.85  291.81  291.83  291.94  292.07  292.11  292.02  291.84  291.60  291.34  291.10  290.93
  19   297.47  297.37  297.18  296.88  296.47  295.94  295.28  294.49  293.72  293.17  292.84  292.64  292.54  292.48  292.43
       292.36  292.28  292.23  292.23  292.26  292.22  292.09  291.88  291.63  291.36  291.12  290.95
  20   297.50  297.41  297.22  296.94  296.55  296.07  295.48  294.80  294.17  293.74  293.47  293.30  293.20  293.15  293.09
       293.02  292.91  292.80  292.68  292.57  292.41  292.21  291.97  291.69  291.41  291.15  290.98
  21   297.55  297.46  297.29  297.02  296.67  296.24  295.72  295.15  294.63  294.27  294.04  293.89  293.80  293.74  293.69
       293.60  293.48  293.33  293.14  292.92  292.66  292.39  292.09  291.78  291.47  291.21  291.03
  22   297.60  297.52  297.36  297.12  296.80  296.41  295.95  295.45  295.00  294.69  294.48  294.33  294.24  294.19  294.13
       294.05  293.92  293.75  293.52  293.22  292.89  292.55  292.21  291.87  291.54  291.26  291.08
  23   297.66  297.58  297.43  297.21  296.91  296.56  296.15  295.70  295.29  295.00  294.80  294.66  294.57  294.52  294.46
       294.38  294.24  294.06  293.81  293.47  293.09  292.71  292.33  291.96  291.62  291.32  291.13
  24   297.71  297.64  297.49  297.29  297.01  296.68  296.31  295.89  295.51  295.23  295.04  294.90  294.81  294.76  294.70
       294.62  294.48  294.29  294.03  293.66  293.24  292.83  292.43  292.04  291.68  291.38  291.18
  25   297.75  297.68  297.55  297.35  297.09  296.78  296.42  296.03  295.66  295.40  295.21  295.07  294.98  294.93  294.87
       294.78  294.65  294.45  294.18  293.80  293.36  292.93  292.51  292.10  291.73  291.42  291.22
  26   297.78  297.71  297.58  297.39  297.14  296.84  296.50  296.12  295.76  295.50  295.31  295.18  295.09  295.03  294.98
       294.89  294.75  294.56  294.28  293.89  293.44  292.99  292.56  292.14  291.76  291.45  291.25
  27   297.79  297.73  297.60  297.41  297.17  296.88  296.54  296.16  295.81  295.55  295.36  295.23  295.14  295.09  295.03
       294.94  294.80  294.61  294.33  293.93  293.48  293.03  292.58  292.17  291.78  291.47  291.26
1
              HEAD IN LAYER   3 AT END OF TIME STEP   1 IN STRESS PERIOD    1
  ---------------------------------------------------------------------------

           1       2       3       4       5       6       7       8       9      10      11      12      13      14      15
          16      17      18      19      20      21      22      23      24      25      26      27
 ...........................................................................................................................
   1   297.61  297.54  297.42  297.23  296.99  296.70  296.36  296.00  295.65  295.40  295.21  295.08  295.00  294.94  294.89
       294.81  294.67  294.48  294.21  293.84  293.41  293.00  292.60  292.23  291.91  291.66  291.51
   2   297.59  297.53  297.40  297.21  296.96  296.66  296.33  295.95  295.60  295.34  295.16  295.03  294.94  294.89  294.84
       294.75  294.62  294.43  294.16  293.79  293.37  292.96  292.57  292.21  291.89  291.64  291.50
   3   297.56  297.49  297.36  297.16  296.91  296.60  296.25  295.86  295.50  295.24  295.05  294.92  294.83  294.78  294.73
       294.64  294.51  294.32  294.06  293.70  293.29  292.90  292.52  292.16  291.85  291.61  291.47
   4   297.52  297.45  297.31  297.10  296.83  296.50  296.12  295.71  295.34  295.07  294.88  294.74  294.66  294.61  294.55
       294.47  294.34  294.16  293.90  293.56  293.17  292.80  292.44  292.10  291.80  291.56  291.43
   5   297.47  297.39  297.24  297.02  296.72  296.37  295.96  295.52  295.11  294.83  294.63  294.49  294.41  294.35  294.30
       294.22  294.09  293.92  293.68  293.36  293.01  292.67  292.33  292.02  291.73  291.51  291.38
   6   297.41  297.33  297.17  296.93  296.60  296.21  295.76  295.26  294.81  294.50  294.29  294.14  294.06  294.00  293.95
       293.87  293.75  293.58  293.37  293.10  292.80  292.51  292.21  291.93  291.66  291.45  291.32
   7   297.36  297.27  297.09  296.83  296.48  296.04  295.52  294.93  294.41  294.05  293.81  293.66  293.57  293.52  293.46
       293.39  293.27  293.13  292.97  292.78  292.56  292.33  292.09  291.83  291.59  291.39  291.27
   8   297.31  297.22  297.03  296.74  296.35  295.86  295.25  294.55  293.89  293.43  293.15  292.97  292.88  292.82  292.77
       292.70  292.61  292.52  292.45  292.40  292.30  292.16  291.96  291.74  291.52  291.33  291.22
   9   297.28  297.18  296.98  296.68  296.26  295.72  295.04  294.20  293.34  292.70  292.30  292.07  291.95  291.90  291.85
       291.79  291.76  291.79  291.90  292.05  292.09  292.02  291.87  291.68  291.48  291.30  291.19
  10   297.26  297.16  296.96  296.65  296.22  295.65  294.92  293.99  292.94  292.07  291.48  291.14  290.98  290.92  290.88
       290.86  290.94  291.16  291.51  291.83  291.97  291.95  291.83  291.65  291.45  291.28  291.17
  11   297.26  297.15  296.95  296.63  296.19  295.62  294.86  293.88  292.71  291.65  290.84  290.33  290.11  290.03  290.00
       290.05  290.30  290.74  291.28  291.72  291.91  291.91  291.80  291.63  291.44  291.27  291.17
  12   297.25  297.15  296.94  296.63  296.19  295.60  294.84  293.83  292.61  291.44  290.46  289.75  289.42  289.32  289.31
       289.47  289.91  290.53  291.18  291.67  291.89  291.90  291.80  291.63  291.44  291.27  291.16
  13   297.25  297.15  296.94  296.63  296.18  295.60  294.83  293.82  292.58  291.37  290.32  289.50  289.06  288.92  288.95
       289.22  289.78  290.46  291.15  291.66  291.88  291.90  291.79  291.63  291.44  291.27  291.16
  14   297.25  297.15  296.94  296.63  296.18  295.60  294.83  293.82  292.58  291.36  290.30  289.46  288.97  288.78  288.86
       289.18  289.76  290.45  291.14  291.66  291.88  291.90  291.79  291.63  291.44  291.27  291.16
  15   297.25  297.15  296.94  296.63  296.18  295.60  294.83  293.82  292.58  291.37  290.32  289.50  289.06  288.92  288.95
[...]
  10   289.62  289.52  289.32  289.02  288.60  288.05  287.34  286.45  285.45  284.63  284.07  283.77  283.64  283.60  283.57
       283.58  283.72  284.03  284.50  285.03  285.40  285.62  285.72  285.75  285.72  285.68  285.64
  11   289.61  289.51  289.31  289.00  288.57  288.01  287.28  286.33  285.20  284.19  283.41  282.94  282.74  282.69  282.67
       282.75  283.06  283.59  284.26  284.91  285.34  285.58  285.70  285.73  285.71  285.67  285.63
  12   289.61  289.51  289.31  288.99  288.56  287.99  287.25  286.28  285.10  283.97  283.02  282.35  282.04  281.96  281.97
       282.17  282.66  283.37  284.15  284.86  285.31  285.57  285.69  285.72  285.70  285.66  285.63
  13   289.61  289.51  289.30  288.99  288.56  287.99  287.25  286.26  285.06  283.90  282.88  282.10  281.68  281.56  281.61
       281.92  282.53  283.30  284.12  284.84  285.31  285.56  285.68  285.72  285.70  285.66  285.63
  14   289.61  289.51  289.30  288.99  288.56  287.99  287.24  286.26  285.06  283.89  282.86  282.05  281.59  281.42  281.52
       281.87  282.50  283.29  284.11  284.84  285.30  285.56  285.68  285.72  285.70  285.66  285.63
  15   289.61  289.51  289.30  288.99  288.56  287.99  287.25  286.26  285.06  283.90  282.88  282.10  281.68  281.56  281.61
       281.92  282.53  283.30  284.12  284.84  285.31  285.56  285.68  285.72  285.70  285.66  285.63
  16   289.61  289.51  289.31  288.99  288.56  287.99  287.25  286.28  285.10  283.97  283.02  282.35  282.04  281.96  281.97
       282.17  282.66  283.37  284.15  284.86  285.31  285.57  285.69  285.72  285.70  285.66  285.63
  17   289.61  289.51  289.31  289.00  288.57  288.01  287.28  286.33  285.20  284.19  283.41  282.94  282.74  282.69  282.67
       282.75  283.06  283.59  284.26  284.91  285.34  285.58  285.70  285.73  285.71  285.67  285.63
  18   289.62  289.52  289.32  289.02  288.60  288.05  287.34  286.45  285.45  284.63  284.07  283.77  283.64  283.60  283.57
       283.58  283.72  284.03  284.50  285.03  285.40  285.62  285.72  285.75  285.72  285.68  285.64
  19   289.64  289.55  289.35  289.06  288.66  288.13  287.48  286.69  285.88  285.29  284.93  284.74  284.65  284.61  284.58
       284.56  284.57  284.69  284.93  285.27  285.54  285.70  285.78  285.78  285.75  285.70  285.66
  20   289.68  289.59  289.41  289.14  288.77  288.30  287.73  287.08  286.48  286.08  285.85  285.71  285.64  285.60  285.57
       285.53  285.49  285.48  285.53  285.66  285.79  285.87  285.89  285.86  285.81  285.75  285.70
  21   289.75  289.67  289.50  289.25  288.92  288.51  288.04  287.52  287.06  286.77  286.59  286.48  286.41  286.38  286.34
       286.29  286.23  286.17  286.12  286.10  286.10  286.08  286.04  285.98  285.89  285.82  285.77
  22   289.83  289.75  289.60  289.38  289.09  288.73  288.33  287.90  287.53  287.29  287.13  287.03  286.97  286.94  286.90
       286.85  286.78  286.69  286.59  286.48  286.39  286.30  286.20  286.10  285.99  285.90  285.84
  23   289.90  289.83  289.70  289.50  289.24  288.93  288.58  288.22  287.90  287.68  287.54  287.45  287.39  287.36  287.32
       287.27  287.19  287.09  286.95  286.80  286.64  286.50  286.36  286.22  286.09  285.98  285.91
  24   289.97  289.91  289.79  289.61  289.37  289.10  288.79  288.46  288.18  287.98  287.85  287.75  287.70  287.66  287.63
       287.57  287.49  287.38  287.23  287.04  286.85  286.66  286.49  286.32  286.17  286.05  285.98
  25   290.03  289.97  289.86  289.69  289.48  289.22  288.94  288.64  288.38  288.19  288.06  287.97  287.91  287.88  287.84
       287.79  287.70  287.59  287.43  287.22  287.00  286.79  286.59  286.41  286.24  286.11  286.03
  26   290.07  290.02  289.91  289.75  289.55  289.31  289.04  288.76  288.51  288.32  288.20  288.11  288.05  288.02  287.98
       287.93  287.84  287.73  287.56  287.34  287.10  286.88  286.66  286.47  286.29  286.15  286.07
  27   290.09  290.04  289.93  289.78  289.59  289.35  289.10  288.82  288.57  288.39  288.27  288.18  288.12  288.09  288.05
       288.00  287.91  287.79  287.63  287.40  287.16  286.92  286.70  286.50  286.32  286.17  286.09
1
              HEAD IN LAYER   4 AT END OF TIME STEP   1 IN STRESS PERIOD    3
  ---------------------------------------------------------------------------

           1       2       3       4       5       6       7       8       9      10      11      12      13      14      15
          16      17      18      19      20      21      22      23      24      25      26      27
 ...........................................................................................................................
   1   289.98  289.92  289.82  289.67  289.47  289.25  288.99  288.72  288.47  288.29  288.17  288.09  288.03  288.00  287.96
       287.91  287.82  287.71  287.55  287.33  287.10  286.88  286.68  286.49  286.34  286.22  286.15
   2   289.96  289.90  289.79  289.64  289.44  289.20  288.94  288.66  288.41  288.23  288.10  288.02  287.96  287.93  287.89
       287.84  287.76  287.64  287.48  287.27  287.05  286.84  286.64  286.46  286.31  286.20  286.13
   3   289.91  289.86  289.74  289.58  289.37  289.12  288.84  288.54  288.28  288.09  287.97  287.88  287.82  287.79  287.76
       287.70  287.62  287.51  287.36  287.16  286.95  286.75  286.57  286.40  286.26  286.15  286.09
   4   289.86  289.79  289.67  289.49  289.26  288.99  288.68  288.36  288.08  287.88  287.75  287.66  287.61  287.57  287.54
       287.48  287.40  287.30  287.15  286.98  286.79  286.62  286.47  286.32  286.19  286.09  286.04
   5   289.79  289.72  289.58  289.39  289.13  288.82  288.48  288.11  287.80  287.59  287.45  287.35  287.30  287.26  287.23
       287.18  287.10  287.00  286.88  286.73  286.59  286.46  286.33  286.21  286.11  286.02  285.97
   6   289.71  289.64  289.49  289.26  288.97  288.62  288.22  287.79  287.43  287.18  287.03  286.93  286.87  286.84  286.80
       286.75  286.68  286.60  286.50  286.41  286.33  286.26  286.18  286.10  286.01  285.94  285.90
   7   289.64  289.55  289.39  289.14  288.81  288.40  287.93  287.40  286.94  286.64  286.46  286.35  286.28  286.25  286.22
       286.17  286.11  286.06  286.02  286.02  286.04  286.04  286.02  285.97  285.91  285.86  285.83
   8   289.57  289.48  289.30  289.02  288.65  288.18  287.61  286.95  286.31  285.89  285.63  285.49  285.42  285.38  285.35
       285.31  285.28  285.30  285.39  285.56  285.72  285.82  285.86  285.86  285.83  285.79  285.76
   9   289.53  289.43  289.24  288.95  288.54  288.02  287.35  286.52  285.62  284.91  284.44  284.19  284.09  284.04  284.02
       284.02  284.10  284.32  284.69  285.13  285.46  285.66  285.75  285.78  285.77  285.74  285.72
  10   289.51  289.41  289.21  288.91  288.49  287.93  287.21  286.25  285.06  283.91  282.97  282.37  282.13  282.07  282.06
       282.19  282.62  283.32  284.14  284.86  285.32  285.57  285.69  285.74  285.74  285.72  285.70
  11   289.50  289.40  289.20  288.89  288.46  287.89  287.14  286.10  284.71  283.08  281.34  279.84  279.13  278.98  279.06
       279.67  280.99  282.49  283.79  284.72  285.25  285.53  285.67  285.72  285.73  285.71  285.69
  12   289.49  289.39  289.19  288.88  288.45  287.87  287.11  286.04  284.54  282.56  279.93  276.65  274.22  273.52  274.15
       276.47  279.58  281.98  283.62  284.66  285.22  285.51  285.66  285.72  285.72  285.71  285.69
  13   289.49  289.39  289.19  288.88  288.45  287.87  287.10  286.02  284.49  282.38  279.27  274.27  267.95  263.67  267.88
       274.10  278.92  281.80  283.57  284.64  285.21  285.51  285.66  285.71  285.72  285.70  285.69
  14   289.49  289.39  289.19  288.88  288.45  287.87  287.10  286.02  284.48  282.35  279.15  273.61  263.71  243.97  263.64
       273.43  278.80  281.77  283.56  284.64  285.21  285.51  285.66  285.71  285.72  285.70  285.69
  15   289.49  289.39  289.19  288.88  288.45  287.87  287.10  286.02  284.49  282.38  279.27  274.27  267.95  263.67  267.88
       274.10  278.92  281.80  283.57  284.64  285.21  285.51  285.66  285.71  285.72  285.70  285.69
  16   289.49  289.39  289.19  288.88  288.45  287.87  287.11  286.04  284.54  282.56  279.93  276.65  274.22  273.52  274.15
       276.47  279.58  281.98  283.62  284.66  285.22  285.51  285.66  285.72  285.72  285.71  285.69
  17   289.50  289.40  289.20  288.89  288.46  287.89  287.14  286.10  284.71  283.08  281.34  279.84  279.13  278.98  279.06
       279.67  280.99  282.49  283.79  284.72  285.25  285.53  285.67  285.72  285.73  285.71  285.69
  18   289.51  289.41  289.21  288.91  288.49  287.93  287.21  286.25  285.06  283.91  282.97  282.37  282.13  282.07  282.06
       282.19  282.62  283.32  284.14  284.86  285.32  285.57  285.69  285.74  285.74  285.72  285.70
  19   289.53  289.43  289.24  288.95  288.54  288.02  287.35  286.52  285.62  284.91  284.44  284.19  284.09  284.04  284.02
       284.02  284.10  284.32  284.69  285.13  285.46  285.66  285.75  285.78  285.77  285.74  285.72
  20   289.57  289.48  289.30  289.02  288.65  288.18  287.61  286.95  286.31  285.89  285.63  285.49  285.42  285.38  285.35
       285.31  285.28  285.30  285.39  285.56  285.72  285.82  285.86  285.86  285.83  285.79  285.76
  21   289.64  289.55  289.39  289.14  288.81  288.40  287.93  287.40  286.94  286.64  286.46  286.35  286.28  286.25  286.22
       286.17  286.11  286.06  286.02  286.02  286.04  286.04  286.02  285.97  285.91  285.86  285.83
  22   289.71  289.64  289.49  289.26  288.97  288.62  288.22  287.79  287.43  287.18  287.03  286.93  286.87  286.84  286.80
       286.75  286.68  286.60  286.50  286.41  286.33  286.26  286.18  286.10  286.01  285.94  285.90
  23   289.79  289.72  289.58  289.39  289.13  288.82  288.48  288.11  287.80  287.59  287.45  287.35  287.30  287.26  287.23
       287.18  287.10  287.00  286.88  286.73  286.59  286.46  286.33  286.21  286.11  286.02  285.97
  24   289.86  289.79  289.67  289.49  289.26  288.99  288.68  288.36  288.08  287.88  287.75  287.66  287.61  287.57  287.54
       287.48  287.40  287.30  287.15  286.98  286.79  286.62  286.47  286.32  286.19  286.09  286.04
  25   289.91  289.86  289.74  289.58  289.37  289.12  288.84  288.54  288.28  288.09  287.97  287.88  287.82  287.79  287.76
       287.70  287.62  287.51  287.36  287.16  286.95  286.75  286.57  286.40  286.26  286.15  286.09
  26   289.96  289.90  289.79  289.64  289.44  289.20  288.94  288.66  288.41  288.23  288.10  288.02  287.96  287.93  287.89
       287.84  287.76  287.64  287.48  287.27  287.05  286.84  286.64  286.46  286.31  286.20  286.13
  27   289.98  289.92  289.82  289.67  289.47  289.25  288.99  288.72  288.47  288.29  288.17  288.09  288.03  288.00  287.96
       287.91  287.82  287.71  287.55  287.33  287.10  286.88  286.68  286.49  286.34  286.22  286.15
1
              HEAD IN LAYER   5 AT END OF TIME STEP   1 IN STRESS PERIOD    3
  ---------------------------------------------------------------------------

           1       2       3       4       5       6       7       8       9      10      11      12      13      14      15
          16      17      18      19      20      21      22      23      24      25      26      27
 ...........................................................................................................................
   1   289.92  289.87  289.76  289.61  289.42  289.19  288.94  288.66  288.42  288.25  288.13  288.04  287.99  287.95  287.92
       287.86  287.78  287.67  287.51  287.30  287.07  286.86  286.66  286.49  286.35  286.24  286.18
   2   289.90  289.84  289.74  289.58  289.38  289.15  288.88  288.61  288.36  288.18  288.06  287.97  287.92  287.88  287.85
       287.80  287.71  287.60  287.45  287.24  287.02  286.82  286.63  286.46  286.32  286.22  286.16
   3   289.86  289.80  289.69  289.52  289.31  289.06  288.78  288.49  288.23  288.04  287.92  287.83  287.78  287.74  287.71
       287.66  287.58  287.47  287.32  287.12  286.92  286.73  286.56  286.40  286.27  286.18  286.12
   4   289.80  289.74  289.61  289.44  289.21  288.93  288.63  288.31  288.03  287.83  287.70  287.62  287.56  287.53  287.49
       287.44  287.36  287.26  287.12  286.94  286.76  286.60  286.45  286.32  286.20  286.11  286.07
   5   289.73  289.66  289.53  289.33  289.07  288.77  288.42  288.06  287.75  287.54  287.40  287.31  287.25  287.22  287.18
       287.13  287.05  286.96  286.84  286.69  286.56  286.44  286.32  286.21  286.12  286.04  286.00
   6   289.65  289.58  289.43  289.21  288.92  288.57  288.17  287.74  287.37  287.13  286.98  286.88  286.82  286.79  286.75
       286.70  286.63  286.55  286.46  286.37  286.30  286.24  286.17  286.09  286.02  285.96  285.93
   7   289.58  289.50  289.33  289.08  288.75  288.35  287.87  287.35  286.88  286.58  286.40  286.29  286.22  286.19  286.16
       286.11  286.05  286.00  285.97  285.98  286.01  286.02  286.01  285.97  285.92  285.88  285.85
   8   289.51  289.42  289.24  288.97  288.60  288.13  287.55  286.88  286.25  285.82  285.57  285.43  285.36  285.33  285.30
       285.26  285.23  285.24  285.34  285.51  285.69  285.80  285.85  285.86  285.84  285.81  285.79
   9   289.47  289.37  289.18  288.89  288.49  287.96  287.29  286.45  285.56  284.90  284.50  284.29  284.19  284.16  284.13
       284.11  284.15  284.32  284.65  285.08  285.42  285.63  285.74  285.78  285.78  285.76  285.75
  10   289.45  289.35  289.15  288.85  288.43  287.87  287.14  286.18  285.05  284.10  283.47  283.12  282.98  282.94  282.91
       282.94  283.12  283.53  284.14  284.81  285.28  285.54  285.68  285.74  285.75  285.74  285.73
  11   289.44  289.34  289.14  288.83  288.40  287.83  287.07  286.04  284.76  283.58  282.68  282.14  281.92  281.86  281.86
       281.96  282.34  283.00  283.85  284.67  285.21  285.50  285.66  285.72  285.74  285.73  285.72
  12   289.44  289.34  289.14  288.82  288.39  287.81  287.04  285.98  284.63  283.31  282.22  281.46  281.13  281.05  281.06
       281.29  281.87  282.73  283.72  284.62  285.18  285.49  285.65  285.71  285.73  285.73  285.72
  13   289.43  289.34  289.13  288.82  288.39  287.81  287.03  285.96  284.60  283.23  282.06  281.18  280.74  280.61  280.67
       281.01  281.72  282.65  283.69  284.60  285.17  285.48  285.64  285.71  285.73  285.72  285.72
  14   289.43  289.34  289.13  288.82  288.39  287.81  287.03  285.96  284.59  283.22  282.03  281.13  280.64  280.46  280.58
       280.96  281.69  282.64  283.68  284.60  285.17  285.48  285.64  285.71  285.73  285.72  285.72
  15   289.43  289.34  289.13  288.82  288.39  287.81  287.03  285.96  284.60  283.23  282.06  281.18  280.74  280.61  280.67
       281.01  281.72  282.65  283.69  284.60  285.17  285.48  285.64  285.71  285.73  285.72  285.72
  16   289.44  289.34  289.14  288.82  288.39  287.81  287.04  285.98  284.63  283.31  282.22  281.46  281.13  281.05  281.06
       281.29  281.87  282.73  283.72  284.62  285.18  285.49  285.65  285.71  285.73  285.73  285.72
  17   289.44  289.34  289.14  288.83  288.40  287.83  287.07  286.04  284.76  283.58  282.68  282.14  281.92  281.86  281.86
       281.96  282.34  283.00  283.85  284.67  285.21  285.50  285.66  285.72  285.74  285.73  285.72
  18   289.45  289.35  289.15  288.85  288.43  287.87  287.14  286.18  285.05  284.10  283.47  283.12  282.98  282.94  282.91
       282.94  283.12  283.53  284.14  284.81  285.28  285.54  285.68  285.74  285.75  285.74  285.73
  19   289.47  289.37  289.18  288.89  288.49  287.96  287.29  286.45  285.56  284.90  284.50  284.29  284.19  284.16  284.13
       284.11  284.15  284.32  284.65  285.08  285.42  285.63  285.74  285.78  285.78  285.76  285.75
  20   289.51  289.42  289.24  288.97  288.60  288.13  287.55  286.88  286.25  285.82  285.57  285.43  285.36  285.33  285.30
       285.26  285.23  285.24  285.34  285.51  285.69  285.80  285.85  285.86  285.84  285.81  285.79
  21   289.58  289.50  289.33  289.08  288.75  288.35  287.87  287.35  286.88  286.58  286.40  286.29  286.22  286.19  286.16
       286.11  286.05  286.00  285.97  285.98  286.01  286.02  286.01  285.97  285.92  285.88  285.85
  22   289.65  289.58  289.43  289.21  288.92  288.57  288.17  287.74  287.37  287.13  286.98  286.88  286.82  286.79  286.75
       286.70  286.63  286.55  286.46  286.37  286.30  286.24  286.17  286.09  286.02  285.96  285.93
  23   289.73  289.66  289.53  289.33  289.07  288.77  288.42  288.06  287.75  287.54  287.40  287.31  287.25  287.22  287.18
       287.13  287.05  286.96  286.84  286.69  286.56  286.44  286.32  286.21  286.12  286.04  286.00
  24   289.80  289.74  289.61  289.44  289.21  288.93  288.63  288.31  288.03  287.83  287.70  287.62  287.56  287.53  287.49
       287.44  287.36  287.26  287.12  286.94  286.76  286.60  286.45  286.32  286.20  286.11  286.07
  25   289.86  289.80  289.69  289.52  289.31  289.06  288.78  288.49  288.23  288.04  287.92  287.83  287.78  287.74  287.71
       287.66  287.58  287.47  287.32  287.12  286.92  286.73  286.56  286.40  286.27  286.18  286.12
  26   289.90  289.84  289.74  289.58  289.38  289.15  288.88  288.61  288.36  288.18  288.06  287.97  287.92  287.88  287.85
       287.80  287.71  287.60  287.45  287.24  287.02  286.82  286.63  286.46  286.32  286.22  286.16
  27   289.92  289.87  289.76  289.61  289.42  289.19  288.94  288.66  288.42  288.25  288.13  288.04  287.99  287.95  287.92
       287.86  287.78  287.67  287.51  287.30  287.07  286.86  286.66  286.49  286.35  286.24  286.18

 HEAD WILL BE SAVED ON UNIT   32 AT END OF TIME STEP   1, STRESS PERIOD    3
1
  VOLUMETRIC BUDGET FOR ENTIRE MODEL AT END OF TIME STEP  1 IN STRESS PERIOD   3
  ------------------------------------------------------------------------------

     CUMULATIVE VOLUMES      L**3       RATES FOR THIS TIME STEP      L**3/T
     ------------------                 ------------------------

           IN:                                      IN:
           ---                                      ---
             STORAGE =    88466456.0000               STORAGE =           1.6387
       CONSTANT HEAD =           0.0000         CONSTANT HEAD =           0.0000
               WELLS =           0.0000                 WELLS =           0.0000
       RIVER LEAKAGE =           0.0000         RIVER LEAKAGE =           0.0000
            RECHARGE =189916200960.0000              RECHARGE =      292336.1875

            TOTAL IN =190004674560.0000              TOTAL IN =      292337.8125

          OUT:                                     OUT:
          ----                                     ----
             STORAGE =        1155.6028               STORAGE =           0.0000
       CONSTANT HEAD =           0.0000         CONSTANT HEAD =           0.0000
               WELLS = 89344000000.0000                 WELLS =      160000.0000
       RIVER LEAKAGE =100661010432.0000         RIVER LEAKAGE =      132338.4844
            RECHARGE =           0.0000              RECHARGE =           0.0000

           TOTAL OUT =190005018624.0000             TOTAL OUT =      292338.5000

            IN - OUT =     -344064.0000              IN - OUT =          -0.6875

 PERCENT DISCREPANCY =           0.00     PERCENT DISCREPANCY =           0.00






          TIME SUMMARY AT END OF TIME STEP   1 IN STRESS PERIOD    3
                    SECONDS     MINUTES      HOURS       DAYS        YEARS
                    -----------------------------------------------------------
   TIME STEP LENGTH 3.94157E+10 6.56928E+08 1.09488E+07 4.56200E+05  1249.0    
 STRESS PERIOD TIME 3.94157E+10 6.56928E+08 1.09488E+07 4.56200E+05  1249.0    
         TOTAL TIME 5.61298E+10 9.35496E+08 1.55916E+07 6.49650E+05  1778.6    
1

 Run end date and time (yyyy/mm/dd hh:mm:ss): 2008/10/29 14:19:44
 Elapsed run time:  0.516 Seconds

