 Open sim file; read NAME and LIST file names                                                                                        
 Open the NAME file and read the number of grids                                                                                     
 Process the input data for each grid                                                                                                
 Read MODPATH simulation file and prepare simulation data                                                                            
 Compute range of time steps. Prepare for time step loop                                                                             
 Begin time step loop.                                                                                                               
 Processing Time Step     1 Period     3.  Time =  4.10000E+05                                                                       
 Read, process, and load the data for this time step                                                                                 
 Check budget: IBDOPT =   2                                                                                                          
 Compute TSMAX                                                                                                                       
 Begin TRACKING_INTERVAL_LOOP                                                                                                        
 Call TRACK                                                                                                                          
 Exit TRACKING_INTERVAL_LOOP                                                                                                         
 Processing Time Step    10 Period     2.  Time =  2.10000E+05                                                                       
 Read, process, and load the data for this time step                                                                                 
 Check budget: IBDOPT =   2                                                                                                          
 Compute TSMAX                                                                                                                       
 Begin TRACKING_INTERVAL_LOOP                                                                                                        
 Call TRACK                                                                                                                          
 Exit TRACKING_INTERVAL_LOOP                                                                                                         
 Processing Time Step     9 Period     2.  Time =  2.06608E+05                                                                       
 Read, process, and load the data for this time step                                                                                 
 Check budget: IBDOPT =   2                                                                                                          
 Compute TSMAX                                                                                                                       
 Begin TRACKING_INTERVAL_LOOP                                                                                                        
 Call TRACK                                                                                                                          
 Exit TRACKING_INTERVAL_LOOP                                                                                                         
 Processing Time Step     8 Period     2.  Time =  2.04346E+05                                                                       
 Read, process, and load the data for this time step                                                                                 
 Check budget: IBDOPT =   2                                                                                                          
 Compute TSMAX                                                                                                                       
 Begin TRACKING_INTERVAL_LOOP                                                                                                        
 Call TRACK                                                                                                                          
 Exit TRACKING_INTERVAL_LOOP                                                                                                         
 Processing Time Step     7 Period     2.  Time =  2.02839E+05                                                                       
 Read, process, and load the data for this time step                                                                                 
 Check budget: IBDOPT =   2                                                                                                          
 Compute TSMAX                                                                                                                       
 Begin TRACKING_INTERVAL_LOOP                                                                                                        
 Call TRACK                                                                                                                          
 Exit TRACKING_INTERVAL_LOOP                                                                                                         
 Processing Time Step     6 Period     2.  Time =  2.01834E+05                                                                       
 Read, process, and load the data for this time step                                                                                 
 Check budget: IBDOPT =   2                                                                                                          
 Compute TSMAX                                                                                                                       
 Begin TRACKING_INTERVAL_LOOP                                                                                                        
 Call TRACK                                                                                                                          
 Exit TRACKING_INTERVAL_LOOP                                                                                                         
 Processing Time Step     5 Period     2.  Time =  2.01164E+05                                                                       
 Read, process, and load the data for this time step                                                                                 
 Check budget: IBDOPT =   2                                                                                                          
 Compute TSMAX                                                                                                                       
 Begin TRACKING_INTERVAL_LOOP                                                                                                        
 Call TRACK                                                                                                                          
 Exit TRACKING_INTERVAL_LOOP                                                                                                         
 Processing Time Step     4 Period     2.  Time =  2.00717E+05                                                                       
 Read, process, and load the data for this time step                                                                                 
 Check budget: IBDOPT =   2                                                                                                          
 Compute TSMAX                                                                                                                       
 Begin TRACKING_INTERVAL_LOOP                                                                                                        
 Call TRACK                                                                                                                          
 Exit TRACKING_INTERVAL_LOOP                                                                                                         
 Processing Time Step     3 Period     2.  Time =  2.00419E+05                                                                       
 Read, process, and load the data for this time step                                                                                 
 Check budget: IBDOPT =   2                                                                                                          
 Compute TSMAX                                                                                                                       
 Begin TRACKING_INTERVAL_LOOP                                                                                                        
 Call TRACK                                                                                                                          
 Exit TRACKING_INTERVAL_LOOP                                                                                                         
 Processing Time Step     2 Period     2.  Time =  2.00221E+05                                                                       
 Read, process, and load the data for this time step                                                                                 
 Check budget: IBDOPT =   2                                                                                                          
 Compute TSMAX                                                                                                                       
 Begin TRACKING_INTERVAL_LOOP                                                                                                        
 Call TRACK                                                                                                                          
 Exit TRACKING_INTERVAL_LOOP                                                                                                         
 Processing Time Step     1 Period     2.  Time =  2.00088E+05                                                                       
 Read, process, and load the data for this time step                                                                                 
 Check budget: IBDOPT =   2                                                                                                          
 Compute TSMAX                                                                                                                       
 Begin TRACKING_INTERVAL_LOOP                                                                                                        
 Call TRACK                                                                                                                          
 Exit TRACKING_INTERVAL_LOOP                                                                                                         
 Processing Time Step     1 Period     1.  Time =  2.00000E+05                                                                       
 Read, process, and load the data for this time step                                                                                 
 Check budget: IBDOPT =   2                                                                                                          
 Compute TSMAX                                                                                                                       
 Begin TRACKING_INTERVAL_LOOP                                                                                                        
 Call TRACK                                                                                                                          
 Exit TRACKING_INTERVAL_LOOP                                                                                                         
 Exit TIME_STEP_LOOP                                                                                                                 
 Particle tracking complete. Writing endpoint file ...                                                                               
 End of MODPATH simulation. Normal termination.
